version 2
run AttackerType1-33-20180205-16:56:21-62278
attr configname AttackerType1
attr datetime 20180205-16:56:21
attr experiment AttackerType1
attr inifile omnetpp_33.ini
attr iterationvars "$start=7, $0=0.1"
attr iterationvarsf start=7,0.1-
attr measurement "$start=7, $0=0.1"
attr network MyScenario
attr processid 62278
attr repetition 3
attr replication #3
attr resultdir results
attr runnumber 33
attr seedset 3
attr start 7
param **.**.**.debug false
param **.**.nic.**.debug false
param **.coreDebug false
param **.debug false
param *.**.nic.mac1609_4.bitrate 6Mbps
param *.**.nic.mac1609_4.txPower 20mW
param *.**.nic.mac1609_4.useServiceChannel false
param *.**.nic.phy80211p.analogueModels "xmldoc(\"config.xml\")"
param *.**.nic.phy80211p.antenna "xmldoc(\"antenna.xml\", \"/root/Antenna[@id='monopole']\")"
param *.**.nic.phy80211p.decider "xmldoc(\"config.xml\")"
param *.**.nic.phy80211p.sensitivity -89dBm
param *.**.nic.phy80211p.thermalNoise -110dBm
param *.**.nic.phy80211p.usePropagationDelay true
param *.**.nic.phy80211p.useThermalNoise true
param *.**.veinsmobility.x 0
param *.**.veinsmobility.y 0
param *.**.veinsmobility.z 1.895
param *.**.veinsmobilityType.debug false
param *.annotations.draw false
param *.connectionManager.drawMaxIntfDist false
param *.connectionManager.maxInterfDist 2600m
param *.connectionManager.sendDirect true
param *.manager.autoShutdown true
param *.manager.configFile "\"dua.static.sumocfg\""
param *.manager.firstStepAt 7h
param *.manager.host "\"localhost\""
param *.manager.launchConfig "xmldoc(\"luxembourg.launchd.xml\")"
param *.manager.roiRects "\"2300,5400-6300,6300\""
param *.manager.seed 3
param *.manager.updateInterval 0.1s
param *.node[*].appl.attackerProbability 0.1
param *.node[*].appl.attackerType 1
param *.node[*].appl.attackerXPos 5560
param *.node[*].appl.attackerYPos 5820
param *.node[*].appl.beaconInterval 1s
param *.node[*].appl.dataOnSch false
param *.node[*].appl.headerLength "80 bit"
param *.node[*].appl.sendBeacons true
param *.node[*].appl.traceGroundTruthJSONFile "\"GroundTruthJSONlog\""
param *.node[*].appl.traceJSONFile "\"JSONlog-\""
param *.node[*].applType "\"AttackerApp\""
param *.obstacles.debug false
param *.obstacles.obstacles "xmldoc(\"config.xml\", \"//AnalogueModel[@type='SimpleObstacleShadowing']/obstacles\")"
param *.playgroundSizeX 13640m
param *.playgroundSizeY 11500m
param *.playgroundSizeZ 50m

scalar _runattrs_ 	start 	7
scalar MyScenario.node[107].appl 	generatedWSMs 	0
scalar MyScenario.node[107].appl 	receivedWSMs 	0
scalar MyScenario.node[107].appl 	generatedBSMs 	0
scalar MyScenario.node[107].appl 	receivedBSMs 	1
scalar MyScenario.node[107].appl 	generatedWSAs 	0
scalar MyScenario.node[107].appl 	receivedWSAs 	0
scalar MyScenario.node[107].nic.phy80211p 	busyTime 	0.00052
scalar MyScenario.node[107].nic.mac1609_4 	ReceivedUnicastPackets 	0
scalar MyScenario.node[107].nic.mac1609_4 	ReceivedBroadcasts 	1
scalar MyScenario.node[107].nic.mac1609_4 	SentPackets 	0
scalar MyScenario.node[107].nic.mac1609_4 	SNIRLostPackets 	0
scalar MyScenario.node[107].nic.mac1609_4 	RXTXLostPackets 	0
scalar MyScenario.node[107].nic.mac1609_4 	TotalLostPackets 	0
scalar MyScenario.node[107].nic.mac1609_4 	DroppedPacketsInMac 	0
scalar MyScenario.node[107].nic.mac1609_4 	TooLittleTime 	0
scalar MyScenario.node[107].nic.mac1609_4 	TimesIntoBackoff 	0
scalar MyScenario.node[107].nic.mac1609_4 	SlotsBackoff 	0
scalar MyScenario.node[107].nic.mac1609_4 	NumInternalContention 	0
scalar MyScenario.node[107].nic.mac1609_4 	totalBusyTime 	0.000104
scalar MyScenario.node[107].veinsmobility 	startTime 	25200
scalar MyScenario.node[107].veinsmobility 	totalTime 	0.1
scalar MyScenario.node[107].veinsmobility 	stopTime 	25200.2
scalar MyScenario.node[107].veinsmobility 	minSpeed 	11.710574556377
scalar MyScenario.node[107].veinsmobility 	maxSpeed 	11.710574556377
scalar MyScenario.node[107].veinsmobility 	totalDistance 	1.1722242457972
scalar MyScenario.node[107].veinsmobility 	totalCO2Emission 	0
scalar MyScenario.node[11].appl 	generatedWSMs 	0
scalar MyScenario.node[11].appl 	receivedWSMs 	0
scalar MyScenario.node[11].appl 	generatedBSMs 	2
scalar MyScenario.node[11].appl 	receivedBSMs 	41
scalar MyScenario.node[11].appl 	generatedWSAs 	0
scalar MyScenario.node[11].appl 	receivedWSAs 	0
scalar MyScenario.node[11].nic.phy80211p 	busyTime 	0.0028426666666667
scalar MyScenario.node[11].nic.mac1609_4 	ReceivedUnicastPackets 	0
scalar MyScenario.node[11].nic.mac1609_4 	ReceivedBroadcasts 	41
scalar MyScenario.node[11].nic.mac1609_4 	SentPackets 	2
scalar MyScenario.node[11].nic.mac1609_4 	SNIRLostPackets 	0
scalar MyScenario.node[11].nic.mac1609_4 	RXTXLostPackets 	0
scalar MyScenario.node[11].nic.mac1609_4 	TotalLostPackets 	0
scalar MyScenario.node[11].nic.mac1609_4 	DroppedPacketsInMac 	0
scalar MyScenario.node[11].nic.mac1609_4 	TooLittleTime 	0
scalar MyScenario.node[11].nic.mac1609_4 	TimesIntoBackoff 	2
scalar MyScenario.node[11].nic.mac1609_4 	SlotsBackoff 	1
scalar MyScenario.node[11].nic.mac1609_4 	NumInternalContention 	0
scalar MyScenario.node[11].nic.mac1609_4 	totalBusyTime 	0.004474
scalar MyScenario.node[11].veinsmobility 	startTime 	25200
scalar MyScenario.node[11].veinsmobility 	totalTime 	1.4
scalar MyScenario.node[11].veinsmobility 	stopTime 	25201.5
scalar MyScenario.node[11].veinsmobility 	minSpeed 	29.915341150314
scalar MyScenario.node[11].veinsmobility 	maxSpeed 	29.996458288645
scalar MyScenario.node[11].veinsmobility 	totalDistance 	41.985182966883
scalar MyScenario.node[11].veinsmobility 	totalCO2Emission 	6.8329542973875
scalar MyScenario.node[106].appl 	generatedWSMs 	0
scalar MyScenario.node[106].appl 	receivedWSMs 	0
scalar MyScenario.node[106].appl 	generatedBSMs 	2
scalar MyScenario.node[106].appl 	receivedBSMs 	38
scalar MyScenario.node[106].appl 	generatedWSAs 	0
scalar MyScenario.node[106].appl 	receivedWSAs 	0
scalar MyScenario.node[106].nic.phy80211p 	busyTime 	0.00208
scalar MyScenario.node[106].nic.mac1609_4 	ReceivedUnicastPackets 	0
scalar MyScenario.node[106].nic.mac1609_4 	ReceivedBroadcasts 	38
scalar MyScenario.node[106].nic.mac1609_4 	SentPackets 	2
scalar MyScenario.node[106].nic.mac1609_4 	SNIRLostPackets 	0
scalar MyScenario.node[106].nic.mac1609_4 	RXTXLostPackets 	0
scalar MyScenario.node[106].nic.mac1609_4 	TotalLostPackets 	0
scalar MyScenario.node[106].nic.mac1609_4 	DroppedPacketsInMac 	0
scalar MyScenario.node[106].nic.mac1609_4 	TooLittleTime 	0
scalar MyScenario.node[106].nic.mac1609_4 	TimesIntoBackoff 	2
scalar MyScenario.node[106].nic.mac1609_4 	SlotsBackoff 	4
scalar MyScenario.node[106].nic.mac1609_4 	NumInternalContention 	0
scalar MyScenario.node[106].nic.mac1609_4 	totalBusyTime 	0.004162
scalar MyScenario.node[106].veinsmobility 	startTime 	25200
scalar MyScenario.node[106].veinsmobility 	totalTime 	1.8
scalar MyScenario.node[106].veinsmobility 	stopTime 	25201.9
scalar MyScenario.node[106].veinsmobility 	minSpeed 	34.872575200924
scalar MyScenario.node[106].veinsmobility 	maxSpeed 	34.989746734062
scalar MyScenario.node[106].veinsmobility 	totalDistance 	62.889777206674
scalar MyScenario.node[106].veinsmobility 	totalCO2Emission 	11.427174753091
scalar MyScenario.node[121].appl 	generatedWSMs 	0
scalar MyScenario.node[121].appl 	receivedWSMs 	0
scalar MyScenario.node[121].appl 	generatedBSMs 	2
scalar MyScenario.node[121].appl 	receivedBSMs 	12
scalar MyScenario.node[121].appl 	generatedWSAs 	0
scalar MyScenario.node[121].appl 	receivedWSAs 	0
scalar MyScenario.node[121].nic.phy80211p 	busyTime 	0.000624
scalar MyScenario.node[121].nic.mac1609_4 	ReceivedUnicastPackets 	0
scalar MyScenario.node[121].nic.mac1609_4 	ReceivedBroadcasts 	12
scalar MyScenario.node[121].nic.mac1609_4 	SentPackets 	2
scalar MyScenario.node[121].nic.mac1609_4 	SNIRLostPackets 	0
scalar MyScenario.node[121].nic.mac1609_4 	RXTXLostPackets 	0
scalar MyScenario.node[121].nic.mac1609_4 	TotalLostPackets 	0
scalar MyScenario.node[121].nic.mac1609_4 	DroppedPacketsInMac 	0
scalar MyScenario.node[121].nic.mac1609_4 	TooLittleTime 	0
scalar MyScenario.node[121].nic.mac1609_4 	TimesIntoBackoff 	2
scalar MyScenario.node[121].nic.mac1609_4 	SlotsBackoff 	1
scalar MyScenario.node[121].nic.mac1609_4 	NumInternalContention 	0
scalar MyScenario.node[121].nic.mac1609_4 	totalBusyTime 	0.001458
scalar MyScenario.node[121].veinsmobility 	startTime 	25200
scalar MyScenario.node[121].veinsmobility 	totalTime 	1.9
scalar MyScenario.node[121].veinsmobility 	stopTime 	25202
scalar MyScenario.node[121].veinsmobility 	minSpeed 	1.2973192523064
scalar MyScenario.node[121].veinsmobility 	maxSpeed 	9.396987771901
scalar MyScenario.node[121].veinsmobility 	totalDistance 	10.160057055751
scalar MyScenario.node[121].veinsmobility 	totalCO2Emission 	1.7514
scalar MyScenario.node[8].appl 	generatedWSMs 	0
scalar MyScenario.node[8].appl 	receivedWSMs 	0
scalar MyScenario.node[8].appl 	generatedBSMs 	2
scalar MyScenario.node[8].appl 	receivedBSMs 	40
scalar MyScenario.node[8].appl 	generatedWSAs 	0
scalar MyScenario.node[8].appl 	receivedWSAs 	0
scalar MyScenario.node[8].nic.phy80211p 	busyTime 	0.0018086956521739
scalar MyScenario.node[8].nic.mac1609_4 	ReceivedUnicastPackets 	0
scalar MyScenario.node[8].nic.mac1609_4 	ReceivedBroadcasts 	40
scalar MyScenario.node[8].nic.mac1609_4 	SentPackets 	2
scalar MyScenario.node[8].nic.mac1609_4 	SNIRLostPackets 	0
scalar MyScenario.node[8].nic.mac1609_4 	RXTXLostPackets 	0
scalar MyScenario.node[8].nic.mac1609_4 	TotalLostPackets 	0
scalar MyScenario.node[8].nic.mac1609_4 	DroppedPacketsInMac 	0
scalar MyScenario.node[8].nic.mac1609_4 	TooLittleTime 	0
scalar MyScenario.node[8].nic.mac1609_4 	TimesIntoBackoff 	2
scalar MyScenario.node[8].nic.mac1609_4 	SlotsBackoff 	5
scalar MyScenario.node[8].nic.mac1609_4 	NumInternalContention 	0
scalar MyScenario.node[8].nic.mac1609_4 	totalBusyTime 	0.00437
scalar MyScenario.node[8].veinsmobility 	startTime 	25200
scalar MyScenario.node[8].veinsmobility 	totalTime 	2.2
scalar MyScenario.node[8].veinsmobility 	stopTime 	25202.3
scalar MyScenario.node[8].veinsmobility 	minSpeed 	29.88024230889
scalar MyScenario.node[8].veinsmobility 	maxSpeed 	29.987079537073
scalar MyScenario.node[8].veinsmobility 	totalDistance 	65.779901747627
scalar MyScenario.node[8].veinsmobility 	totalCO2Emission 	11.104662018203
scalar MyScenario.node[180].appl 	generatedWSMs 	0
scalar MyScenario.node[180].appl 	receivedWSMs 	0
scalar MyScenario.node[180].appl 	generatedBSMs 	2
scalar MyScenario.node[180].appl 	receivedBSMs 	81
scalar MyScenario.node[180].appl 	generatedWSAs 	0
scalar MyScenario.node[180].appl 	receivedWSAs 	0
scalar MyScenario.node[180].nic.phy80211p 	busyTime 	0.0030085714285714
scalar MyScenario.node[180].nic.mac1609_4 	ReceivedUnicastPackets 	0
scalar MyScenario.node[180].nic.mac1609_4 	ReceivedBroadcasts 	81
scalar MyScenario.node[180].nic.mac1609_4 	SentPackets 	2
scalar MyScenario.node[180].nic.mac1609_4 	SNIRLostPackets 	0
scalar MyScenario.node[180].nic.mac1609_4 	RXTXLostPackets 	0
scalar MyScenario.node[180].nic.mac1609_4 	TotalLostPackets 	0
scalar MyScenario.node[180].nic.mac1609_4 	DroppedPacketsInMac 	0
scalar MyScenario.node[180].nic.mac1609_4 	TooLittleTime 	0
scalar MyScenario.node[180].nic.mac1609_4 	TimesIntoBackoff 	2
scalar MyScenario.node[180].nic.mac1609_4 	SlotsBackoff 	4
scalar MyScenario.node[180].nic.mac1609_4 	NumInternalContention 	0
scalar MyScenario.node[180].nic.mac1609_4 	totalBusyTime 	0.008634
scalar MyScenario.node[180].veinsmobility 	startTime 	25200
scalar MyScenario.node[180].veinsmobility 	totalTime 	2.7
scalar MyScenario.node[180].veinsmobility 	stopTime 	25202.8
scalar MyScenario.node[180].veinsmobility 	minSpeed 	29.898182797764
scalar MyScenario.node[180].veinsmobility 	maxSpeed 	30.040780625538
scalar MyScenario.node[180].veinsmobility 	totalDistance 	80.98037207873
scalar MyScenario.node[180].veinsmobility 	totalCO2Emission 	13.879140421616
scalar MyScenario.node[192].appl 	generatedWSMs 	0
scalar MyScenario.node[192].appl 	receivedWSMs 	0
scalar MyScenario.node[192].appl 	generatedBSMs 	3
scalar MyScenario.node[192].appl 	receivedBSMs 	10
scalar MyScenario.node[192].appl 	generatedWSAs 	0
scalar MyScenario.node[192].appl 	receivedWSAs 	0
scalar MyScenario.node[192].nic.phy80211p 	busyTime 	0.00031515151515152
scalar MyScenario.node[192].nic.mac1609_4 	ReceivedUnicastPackets 	0
scalar MyScenario.node[192].nic.mac1609_4 	ReceivedBroadcasts 	10
scalar MyScenario.node[192].nic.mac1609_4 	SentPackets 	3
scalar MyScenario.node[192].nic.mac1609_4 	SNIRLostPackets 	0
scalar MyScenario.node[192].nic.mac1609_4 	RXTXLostPackets 	0
scalar MyScenario.node[192].nic.mac1609_4 	TotalLostPackets 	0
scalar MyScenario.node[192].nic.mac1609_4 	DroppedPacketsInMac 	0
scalar MyScenario.node[192].nic.mac1609_4 	TooLittleTime 	0
scalar MyScenario.node[192].nic.mac1609_4 	TimesIntoBackoff 	3
scalar MyScenario.node[192].nic.mac1609_4 	SlotsBackoff 	9
scalar MyScenario.node[192].nic.mac1609_4 	NumInternalContention 	0
scalar MyScenario.node[192].nic.mac1609_4 	totalBusyTime 	0.001355
scalar MyScenario.node[192].veinsmobility 	startTime 	25200
scalar MyScenario.node[192].veinsmobility 	totalTime 	3.2
scalar MyScenario.node[192].veinsmobility 	stopTime 	25203.3
scalar MyScenario.node[192].veinsmobility 	minSpeed 	12.021021055851
scalar MyScenario.node[192].veinsmobility 	maxSpeed 	16.344816434105
scalar MyScenario.node[192].veinsmobility 	totalDistance 	49.259112299271
scalar MyScenario.node[192].veinsmobility 	totalCO2Emission 	6.3297718618855
scalar MyScenario.node[9].appl 	generatedWSMs 	0
scalar MyScenario.node[9].appl 	receivedWSMs 	0
scalar MyScenario.node[9].appl 	generatedBSMs 	3
scalar MyScenario.node[9].appl 	receivedBSMs 	66
scalar MyScenario.node[9].appl 	generatedWSAs 	0
scalar MyScenario.node[9].appl 	receivedWSAs 	0
scalar MyScenario.node[9].nic.phy80211p 	busyTime 	0.0019611428571429
scalar MyScenario.node[9].nic.mac1609_4 	ReceivedUnicastPackets 	0
scalar MyScenario.node[9].nic.mac1609_4 	ReceivedBroadcasts 	66
scalar MyScenario.node[9].nic.mac1609_4 	SentPackets 	3
scalar MyScenario.node[9].nic.mac1609_4 	SNIRLostPackets 	0
scalar MyScenario.node[9].nic.mac1609_4 	RXTXLostPackets 	0
scalar MyScenario.node[9].nic.mac1609_4 	TotalLostPackets 	0
scalar MyScenario.node[9].nic.mac1609_4 	DroppedPacketsInMac 	0
scalar MyScenario.node[9].nic.mac1609_4 	TooLittleTime 	0
scalar MyScenario.node[9].nic.mac1609_4 	TimesIntoBackoff 	3
scalar MyScenario.node[9].nic.mac1609_4 	SlotsBackoff 	3
scalar MyScenario.node[9].nic.mac1609_4 	NumInternalContention 	0
scalar MyScenario.node[9].nic.mac1609_4 	totalBusyTime 	0.007179
scalar MyScenario.node[9].veinsmobility 	startTime 	25200
scalar MyScenario.node[9].veinsmobility 	totalTime 	3.4
scalar MyScenario.node[9].veinsmobility 	stopTime 	25203.5
scalar MyScenario.node[9].veinsmobility 	minSpeed 	29.826564786267
scalar MyScenario.node[9].veinsmobility 	maxSpeed 	30.036277285444
scalar MyScenario.node[9].veinsmobility 	totalDistance 	101.64144928977
scalar MyScenario.node[9].veinsmobility 	totalCO2Emission 	19.281490116657
scalar MyScenario.node[177].appl 	generatedWSMs 	0
scalar MyScenario.node[177].appl 	receivedWSMs 	0
scalar MyScenario.node[177].appl 	generatedBSMs 	4
scalar MyScenario.node[177].appl 	receivedBSMs 	64
scalar MyScenario.node[177].appl 	generatedWSAs 	0
scalar MyScenario.node[177].appl 	receivedWSAs 	0
scalar MyScenario.node[177].nic.phy80211p 	busyTime 	0.0019017142857143
scalar MyScenario.node[177].nic.mac1609_4 	ReceivedUnicastPackets 	0
scalar MyScenario.node[177].nic.mac1609_4 	ReceivedBroadcasts 	64
scalar MyScenario.node[177].nic.mac1609_4 	SentPackets 	4
scalar MyScenario.node[177].nic.mac1609_4 	SNIRLostPackets 	0
scalar MyScenario.node[177].nic.mac1609_4 	RXTXLostPackets 	0
scalar MyScenario.node[177].nic.mac1609_4 	TotalLostPackets 	0
scalar MyScenario.node[177].nic.mac1609_4 	DroppedPacketsInMac 	0
scalar MyScenario.node[177].nic.mac1609_4 	TooLittleTime 	0
scalar MyScenario.node[177].nic.mac1609_4 	TimesIntoBackoff 	4
scalar MyScenario.node[177].nic.mac1609_4 	SlotsBackoff 	10
scalar MyScenario.node[177].nic.mac1609_4 	NumInternalContention 	0
scalar MyScenario.node[177].nic.mac1609_4 	totalBusyTime 	0.007076
scalar MyScenario.node[177].veinsmobility 	startTime 	25200
scalar MyScenario.node[177].veinsmobility 	totalTime 	3.4
scalar MyScenario.node[177].veinsmobility 	stopTime 	25203.5
scalar MyScenario.node[177].veinsmobility 	minSpeed 	13.416714351904
scalar MyScenario.node[177].veinsmobility 	maxSpeed 	13.549105197024
scalar MyScenario.node[177].veinsmobility 	totalDistance 	45.811387812547
scalar MyScenario.node[177].veinsmobility 	totalCO2Emission 	6.957654719429
scalar MyScenario.node[41].appl 	generatedWSMs 	0
scalar MyScenario.node[41].appl 	receivedWSMs 	0
scalar MyScenario.node[41].appl 	generatedBSMs 	4
scalar MyScenario.node[41].appl 	receivedBSMs 	18
scalar MyScenario.node[41].appl 	generatedWSAs 	0
scalar MyScenario.node[41].appl 	receivedWSAs 	0
scalar MyScenario.node[41].nic.phy80211p 	busyTime 	0.00045658536585366
scalar MyScenario.node[41].nic.mac1609_4 	ReceivedUnicastPackets 	0
scalar MyScenario.node[41].nic.mac1609_4 	ReceivedBroadcasts 	18
scalar MyScenario.node[41].nic.mac1609_4 	SentPackets 	4
scalar MyScenario.node[41].nic.mac1609_4 	SNIRLostPackets 	0
scalar MyScenario.node[41].nic.mac1609_4 	RXTXLostPackets 	0
scalar MyScenario.node[41].nic.mac1609_4 	TotalLostPackets 	0
scalar MyScenario.node[41].nic.mac1609_4 	DroppedPacketsInMac 	0
scalar MyScenario.node[41].nic.mac1609_4 	TooLittleTime 	0
scalar MyScenario.node[41].nic.mac1609_4 	TimesIntoBackoff 	4
scalar MyScenario.node[41].nic.mac1609_4 	SlotsBackoff 	3
scalar MyScenario.node[41].nic.mac1609_4 	NumInternalContention 	0
scalar MyScenario.node[41].nic.mac1609_4 	totalBusyTime 	0.002292
scalar MyScenario.node[41].veinsmobility 	startTime 	25200
scalar MyScenario.node[41].veinsmobility 	totalTime 	4
scalar MyScenario.node[41].veinsmobility 	stopTime 	25204.1
scalar MyScenario.node[41].veinsmobility 	minSpeed 	3.2928788037342
scalar MyScenario.node[41].veinsmobility 	maxSpeed 	11.079177497718
scalar MyScenario.node[41].veinsmobility 	totalDistance 	29.161581001008
scalar MyScenario.node[41].veinsmobility 	totalCO2Emission 	19.561696421787
scalar MyScenario.node[169].appl 	generatedWSMs 	0
scalar MyScenario.node[169].appl 	receivedWSMs 	0
scalar MyScenario.node[169].appl 	generatedBSMs 	4
scalar MyScenario.node[169].appl 	receivedBSMs 	96
scalar MyScenario.node[169].appl 	generatedWSAs 	0
scalar MyScenario.node[169].appl 	receivedWSAs 	0
scalar MyScenario.node[169].nic.phy80211p 	busyTime 	0.0024351219512195
scalar MyScenario.node[169].nic.mac1609_4 	ReceivedUnicastPackets 	0
scalar MyScenario.node[169].nic.mac1609_4 	ReceivedBroadcasts 	96
scalar MyScenario.node[169].nic.mac1609_4 	SentPackets 	4
scalar MyScenario.node[169].nic.mac1609_4 	SNIRLostPackets 	0
scalar MyScenario.node[169].nic.mac1609_4 	RXTXLostPackets 	0
scalar MyScenario.node[169].nic.mac1609_4 	TotalLostPackets 	0
scalar MyScenario.node[169].nic.mac1609_4 	DroppedPacketsInMac 	0
scalar MyScenario.node[169].nic.mac1609_4 	TooLittleTime 	0
scalar MyScenario.node[169].nic.mac1609_4 	TimesIntoBackoff 	4
scalar MyScenario.node[169].nic.mac1609_4 	SlotsBackoff 	6
scalar MyScenario.node[169].nic.mac1609_4 	NumInternalContention 	0
scalar MyScenario.node[169].nic.mac1609_4 	totalBusyTime 	0.010404
scalar MyScenario.node[169].veinsmobility 	startTime 	25200
scalar MyScenario.node[169].veinsmobility 	totalTime 	4
scalar MyScenario.node[169].veinsmobility 	stopTime 	25204.1
scalar MyScenario.node[169].veinsmobility 	minSpeed 	30.190931640649
scalar MyScenario.node[169].veinsmobility 	maxSpeed 	30.456390705742
scalar MyScenario.node[169].veinsmobility 	totalDistance 	121.40879213258
scalar MyScenario.node[169].veinsmobility 	totalCO2Emission 	19.867144655923
scalar MyScenario.node[88].appl 	generatedWSMs 	0
scalar MyScenario.node[88].appl 	receivedWSMs 	0
scalar MyScenario.node[88].appl 	generatedBSMs 	4
scalar MyScenario.node[88].appl 	receivedBSMs 	109
scalar MyScenario.node[88].appl 	generatedWSAs 	0
scalar MyScenario.node[88].appl 	receivedWSAs 	0
scalar MyScenario.node[88].nic.phy80211p 	busyTime 	0.0025763636363636
scalar MyScenario.node[88].nic.mac1609_4 	ReceivedUnicastPackets 	0
scalar MyScenario.node[88].nic.mac1609_4 	ReceivedBroadcasts 	109
scalar MyScenario.node[88].nic.mac1609_4 	SentPackets 	4
scalar MyScenario.node[88].nic.mac1609_4 	SNIRLostPackets 	0
scalar MyScenario.node[88].nic.mac1609_4 	RXTXLostPackets 	0
scalar MyScenario.node[88].nic.mac1609_4 	TotalLostPackets 	0
scalar MyScenario.node[88].nic.mac1609_4 	DroppedPacketsInMac 	0
scalar MyScenario.node[88].nic.mac1609_4 	TooLittleTime 	0
scalar MyScenario.node[88].nic.mac1609_4 	TimesIntoBackoff 	4
scalar MyScenario.node[88].nic.mac1609_4 	SlotsBackoff 	6
scalar MyScenario.node[88].nic.mac1609_4 	NumInternalContention 	0
scalar MyScenario.node[88].nic.mac1609_4 	totalBusyTime 	0.011756
scalar MyScenario.node[88].veinsmobility 	startTime 	25200
scalar MyScenario.node[88].veinsmobility 	totalTime 	4.3
scalar MyScenario.node[88].veinsmobility 	stopTime 	25204.4
scalar MyScenario.node[88].veinsmobility 	minSpeed 	0
scalar MyScenario.node[88].veinsmobility 	maxSpeed 	6.8294143338853
scalar MyScenario.node[88].veinsmobility 	totalDistance 	13.034291646573
scalar MyScenario.node[88].veinsmobility 	totalCO2Emission 	11.083369463442
scalar MyScenario.node[0].appl 	generatedWSMs 	0
scalar MyScenario.node[0].appl 	receivedWSMs 	0
scalar MyScenario.node[0].appl 	generatedBSMs 	5
scalar MyScenario.node[0].appl 	receivedBSMs 	90
scalar MyScenario.node[0].appl 	generatedWSAs 	0
scalar MyScenario.node[0].appl 	receivedWSAs 	0
scalar MyScenario.node[0].nic.phy80211p 	busyTime 	0.00195
scalar MyScenario.node[0].nic.mac1609_4 	ReceivedUnicastPackets 	0
scalar MyScenario.node[0].nic.mac1609_4 	ReceivedBroadcasts 	90
scalar MyScenario.node[0].nic.mac1609_4 	SentPackets 	5
scalar MyScenario.node[0].nic.mac1609_4 	SNIRLostPackets 	0
scalar MyScenario.node[0].nic.mac1609_4 	RXTXLostPackets 	0
scalar MyScenario.node[0].nic.mac1609_4 	TotalLostPackets 	0
scalar MyScenario.node[0].nic.mac1609_4 	DroppedPacketsInMac 	0
scalar MyScenario.node[0].nic.mac1609_4 	TooLittleTime 	0
scalar MyScenario.node[0].nic.mac1609_4 	TimesIntoBackoff 	5
scalar MyScenario.node[0].nic.mac1609_4 	SlotsBackoff 	6
scalar MyScenario.node[0].nic.mac1609_4 	NumInternalContention 	0
scalar MyScenario.node[0].nic.mac1609_4 	totalBusyTime 	0.009885
scalar MyScenario.node[0].veinsmobility 	startTime 	25200
scalar MyScenario.node[0].veinsmobility 	totalTime 	4.7
scalar MyScenario.node[0].veinsmobility 	stopTime 	25204.8
scalar MyScenario.node[0].veinsmobility 	minSpeed 	29.829079300108
scalar MyScenario.node[0].veinsmobility 	maxSpeed 	30.030295722292
scalar MyScenario.node[0].veinsmobility 	totalDistance 	140.52008962678
scalar MyScenario.node[0].veinsmobility 	totalCO2Emission 	27.286044361166
scalar MyScenario.node[71].appl 	generatedWSMs 	0
scalar MyScenario.node[71].appl 	receivedWSMs 	0
scalar MyScenario.node[71].appl 	generatedBSMs 	5
scalar MyScenario.node[71].appl 	receivedBSMs 	124
scalar MyScenario.node[71].appl 	generatedWSAs 	0
scalar MyScenario.node[71].appl 	receivedWSAs 	0
scalar MyScenario.node[71].nic.phy80211p 	busyTime 	0.0025286274509804
scalar MyScenario.node[71].nic.mac1609_4 	ReceivedUnicastPackets 	0
scalar MyScenario.node[71].nic.mac1609_4 	ReceivedBroadcasts 	124
scalar MyScenario.node[71].nic.mac1609_4 	SentPackets 	5
scalar MyScenario.node[71].nic.mac1609_4 	SNIRLostPackets 	0
scalar MyScenario.node[71].nic.mac1609_4 	RXTXLostPackets 	0
scalar MyScenario.node[71].nic.mac1609_4 	TotalLostPackets 	0
scalar MyScenario.node[71].nic.mac1609_4 	DroppedPacketsInMac 	0
scalar MyScenario.node[71].nic.mac1609_4 	TooLittleTime 	0
scalar MyScenario.node[71].nic.mac1609_4 	TimesIntoBackoff 	5
scalar MyScenario.node[71].nic.mac1609_4 	SlotsBackoff 	3
scalar MyScenario.node[71].nic.mac1609_4 	NumInternalContention 	0
scalar MyScenario.node[71].nic.mac1609_4 	totalBusyTime 	0.013421
scalar MyScenario.node[71].veinsmobility 	startTime 	25200
scalar MyScenario.node[71].veinsmobility 	totalTime 	5
scalar MyScenario.node[71].veinsmobility 	stopTime 	25205.1
scalar MyScenario.node[71].veinsmobility 	minSpeed 	29.889021954408
scalar MyScenario.node[71].veinsmobility 	maxSpeed 	29.996308015502
scalar MyScenario.node[71].veinsmobility 	totalDistance 	149.69476065799
scalar MyScenario.node[71].veinsmobility 	totalCO2Emission 	24.890897948733
scalar MyScenario.node[17].appl 	generatedWSMs 	0
scalar MyScenario.node[17].appl 	receivedWSMs 	0
scalar MyScenario.node[17].appl 	generatedBSMs 	6
scalar MyScenario.node[17].appl 	receivedBSMs 	137
scalar MyScenario.node[17].appl 	generatedWSAs 	0
scalar MyScenario.node[17].appl 	receivedWSAs 	0
scalar MyScenario.node[17].nic.phy80211p 	busyTime 	0.0026883018867925
scalar MyScenario.node[17].nic.mac1609_4 	ReceivedUnicastPackets 	0
scalar MyScenario.node[17].nic.mac1609_4 	ReceivedBroadcasts 	137
scalar MyScenario.node[17].nic.mac1609_4 	SentPackets 	6
scalar MyScenario.node[17].nic.mac1609_4 	SNIRLostPackets 	0
scalar MyScenario.node[17].nic.mac1609_4 	RXTXLostPackets 	0
scalar MyScenario.node[17].nic.mac1609_4 	TotalLostPackets 	0
scalar MyScenario.node[17].nic.mac1609_4 	DroppedPacketsInMac 	0
scalar MyScenario.node[17].nic.mac1609_4 	TooLittleTime 	0
scalar MyScenario.node[17].nic.mac1609_4 	TimesIntoBackoff 	6
scalar MyScenario.node[17].nic.mac1609_4 	SlotsBackoff 	12
scalar MyScenario.node[17].nic.mac1609_4 	NumInternalContention 	0
scalar MyScenario.node[17].nic.mac1609_4 	totalBusyTime 	0.014878
scalar MyScenario.node[17].veinsmobility 	startTime 	25200
scalar MyScenario.node[17].veinsmobility 	totalTime 	5.2
scalar MyScenario.node[17].veinsmobility 	stopTime 	25205.3
scalar MyScenario.node[17].veinsmobility 	minSpeed 	30.20151167936
scalar MyScenario.node[17].veinsmobility 	maxSpeed 	30.636018310467
scalar MyScenario.node[17].veinsmobility 	totalDistance 	158.38035768164
scalar MyScenario.node[17].veinsmobility 	totalCO2Emission 	28.668607091111
scalar MyScenario.node[149].appl 	generatedWSMs 	0
scalar MyScenario.node[149].appl 	receivedWSMs 	0
scalar MyScenario.node[149].appl 	generatedBSMs 	5
scalar MyScenario.node[149].appl 	receivedBSMs 	151
scalar MyScenario.node[149].appl 	generatedWSAs 	0
scalar MyScenario.node[149].appl 	receivedWSAs 	0
scalar MyScenario.node[149].nic.phy80211p 	busyTime 	0.0026616949152542
scalar MyScenario.node[149].nic.mac1609_4 	ReceivedUnicastPackets 	0
scalar MyScenario.node[149].nic.mac1609_4 	ReceivedBroadcasts 	151
scalar MyScenario.node[149].nic.mac1609_4 	SentPackets 	5
scalar MyScenario.node[149].nic.mac1609_4 	SNIRLostPackets 	0
scalar MyScenario.node[149].nic.mac1609_4 	RXTXLostPackets 	0
scalar MyScenario.node[149].nic.mac1609_4 	TotalLostPackets 	0
scalar MyScenario.node[149].nic.mac1609_4 	DroppedPacketsInMac 	0
scalar MyScenario.node[149].nic.mac1609_4 	TooLittleTime 	0
scalar MyScenario.node[149].nic.mac1609_4 	TimesIntoBackoff 	5
scalar MyScenario.node[149].nic.mac1609_4 	SlotsBackoff 	5
scalar MyScenario.node[149].nic.mac1609_4 	NumInternalContention 	0
scalar MyScenario.node[149].nic.mac1609_4 	totalBusyTime 	0.016229
scalar MyScenario.node[149].veinsmobility 	startTime 	25200
scalar MyScenario.node[149].veinsmobility 	totalTime 	5.8
scalar MyScenario.node[149].veinsmobility 	stopTime 	25205.9
scalar MyScenario.node[149].veinsmobility 	minSpeed 	1.212132999712
scalar MyScenario.node[149].veinsmobility 	maxSpeed 	8.3439020263262
scalar MyScenario.node[149].veinsmobility 	totalDistance 	21.600739871524
scalar MyScenario.node[149].veinsmobility 	totalCO2Emission 	15.60076717867
scalar MyScenario.node[38].appl 	generatedWSMs 	0
scalar MyScenario.node[38].appl 	receivedWSMs 	0
scalar MyScenario.node[38].appl 	generatedBSMs 	6
scalar MyScenario.node[38].appl 	receivedBSMs 	118
scalar MyScenario.node[38].appl 	generatedWSAs 	0
scalar MyScenario.node[38].appl 	receivedWSAs 	0
scalar MyScenario.node[38].nic.phy80211p 	busyTime 	0.0020453333333333
scalar MyScenario.node[38].nic.mac1609_4 	ReceivedUnicastPackets 	0
scalar MyScenario.node[38].nic.mac1609_4 	ReceivedBroadcasts 	118
scalar MyScenario.node[38].nic.mac1609_4 	SentPackets 	6
scalar MyScenario.node[38].nic.mac1609_4 	SNIRLostPackets 	0
scalar MyScenario.node[38].nic.mac1609_4 	RXTXLostPackets 	0
scalar MyScenario.node[38].nic.mac1609_4 	TotalLostPackets 	0
scalar MyScenario.node[38].nic.mac1609_4 	DroppedPacketsInMac 	0
scalar MyScenario.node[38].nic.mac1609_4 	TooLittleTime 	0
scalar MyScenario.node[38].nic.mac1609_4 	TimesIntoBackoff 	6
scalar MyScenario.node[38].nic.mac1609_4 	SlotsBackoff 	8
scalar MyScenario.node[38].nic.mac1609_4 	NumInternalContention 	0
scalar MyScenario.node[38].nic.mac1609_4 	totalBusyTime 	0.012902
scalar MyScenario.node[38].veinsmobility 	startTime 	25200
scalar MyScenario.node[38].veinsmobility 	totalTime 	5.9
scalar MyScenario.node[38].veinsmobility 	stopTime 	25206
scalar MyScenario.node[38].veinsmobility 	minSpeed 	29.864884753943
scalar MyScenario.node[38].veinsmobility 	maxSpeed 	30.151086239613
scalar MyScenario.node[38].veinsmobility 	totalDistance 	176.74201757658
scalar MyScenario.node[38].veinsmobility 	totalCO2Emission 	35.364084954983
scalar MyScenario.node[137].appl 	generatedWSMs 	0
scalar MyScenario.node[137].appl 	receivedWSMs 	0
scalar MyScenario.node[137].appl 	generatedBSMs 	6
scalar MyScenario.node[137].appl 	receivedBSMs 	13
scalar MyScenario.node[137].appl 	generatedWSAs 	0
scalar MyScenario.node[137].appl 	receivedWSAs 	0
scalar MyScenario.node[137].nic.phy80211p 	busyTime 	0.0002216393442623
scalar MyScenario.node[137].nic.mac1609_4 	ReceivedUnicastPackets 	0
scalar MyScenario.node[137].nic.mac1609_4 	ReceivedBroadcasts 	13
scalar MyScenario.node[137].nic.mac1609_4 	SentPackets 	6
scalar MyScenario.node[137].nic.mac1609_4 	SNIRLostPackets 	0
scalar MyScenario.node[137].nic.mac1609_4 	RXTXLostPackets 	0
scalar MyScenario.node[137].nic.mac1609_4 	TotalLostPackets 	0
scalar MyScenario.node[137].nic.mac1609_4 	DroppedPacketsInMac 	0
scalar MyScenario.node[137].nic.mac1609_4 	TooLittleTime 	0
scalar MyScenario.node[137].nic.mac1609_4 	TimesIntoBackoff 	6
scalar MyScenario.node[137].nic.mac1609_4 	SlotsBackoff 	11
scalar MyScenario.node[137].nic.mac1609_4 	NumInternalContention 	0
scalar MyScenario.node[137].nic.mac1609_4 	totalBusyTime 	0.001982
scalar MyScenario.node[137].veinsmobility 	startTime 	25200
scalar MyScenario.node[137].veinsmobility 	totalTime 	6
scalar MyScenario.node[137].veinsmobility 	stopTime 	25206.1
scalar MyScenario.node[137].veinsmobility 	minSpeed 	6.1224745545026
scalar MyScenario.node[137].veinsmobility 	maxSpeed 	11.999847802168
scalar MyScenario.node[137].veinsmobility 	totalDistance 	65.818180326084
scalar MyScenario.node[137].veinsmobility 	totalCO2Emission 	24.371105928452
scalar MyScenario.node[13].appl 	generatedWSMs 	0
scalar MyScenario.node[13].appl 	receivedWSMs 	0
scalar MyScenario.node[13].appl 	generatedBSMs 	6
scalar MyScenario.node[13].appl 	receivedBSMs 	166
scalar MyScenario.node[13].appl 	generatedWSAs 	0
scalar MyScenario.node[13].appl 	receivedWSAs 	0
scalar MyScenario.node[13].nic.phy80211p 	busyTime 	0.0026975
scalar MyScenario.node[13].nic.mac1609_4 	ReceivedUnicastPackets 	0
scalar MyScenario.node[13].nic.mac1609_4 	ReceivedBroadcasts 	166
scalar MyScenario.node[13].nic.mac1609_4 	SentPackets 	6
scalar MyScenario.node[13].nic.mac1609_4 	SNIRLostPackets 	0
scalar MyScenario.node[13].nic.mac1609_4 	RXTXLostPackets 	0
scalar MyScenario.node[13].nic.mac1609_4 	TotalLostPackets 	0
scalar MyScenario.node[13].nic.mac1609_4 	DroppedPacketsInMac 	0
scalar MyScenario.node[13].nic.mac1609_4 	TooLittleTime 	0
scalar MyScenario.node[13].nic.mac1609_4 	TimesIntoBackoff 	6
scalar MyScenario.node[13].nic.mac1609_4 	SlotsBackoff 	13
scalar MyScenario.node[13].nic.mac1609_4 	NumInternalContention 	0
scalar MyScenario.node[13].nic.mac1609_4 	totalBusyTime 	0.017894
scalar MyScenario.node[13].veinsmobility 	startTime 	25200
scalar MyScenario.node[13].veinsmobility 	totalTime 	6.3
scalar MyScenario.node[13].veinsmobility 	stopTime 	25206.4
scalar MyScenario.node[13].veinsmobility 	minSpeed 	29.815445262008
scalar MyScenario.node[13].veinsmobility 	maxSpeed 	30.16176732591
scalar MyScenario.node[13].veinsmobility 	totalDistance 	188.55958999786
scalar MyScenario.node[13].veinsmobility 	totalCO2Emission 	65.090595270725
scalar MyScenario.node[1].appl 	generatedWSMs 	0
scalar MyScenario.node[1].appl 	receivedWSMs 	0
scalar MyScenario.node[1].appl 	generatedBSMs 	7
scalar MyScenario.node[1].appl 	receivedBSMs 	148
scalar MyScenario.node[1].appl 	generatedWSAs 	0
scalar MyScenario.node[1].appl 	receivedWSAs 	0
scalar MyScenario.node[1].nic.phy80211p 	busyTime 	0.0021377777777778
scalar MyScenario.node[1].nic.mac1609_4 	ReceivedUnicastPackets 	0
scalar MyScenario.node[1].nic.mac1609_4 	ReceivedBroadcasts 	148
scalar MyScenario.node[1].nic.mac1609_4 	SentPackets 	7
scalar MyScenario.node[1].nic.mac1609_4 	SNIRLostPackets 	0
scalar MyScenario.node[1].nic.mac1609_4 	RXTXLostPackets 	0
scalar MyScenario.node[1].nic.mac1609_4 	TotalLostPackets 	0
scalar MyScenario.node[1].nic.mac1609_4 	DroppedPacketsInMac 	0
scalar MyScenario.node[1].nic.mac1609_4 	TooLittleTime 	0
scalar MyScenario.node[1].nic.mac1609_4 	TimesIntoBackoff 	7
scalar MyScenario.node[1].nic.mac1609_4 	SlotsBackoff 	10
scalar MyScenario.node[1].nic.mac1609_4 	NumInternalContention 	0
scalar MyScenario.node[1].nic.mac1609_4 	totalBusyTime 	0.016127
scalar MyScenario.node[1].veinsmobility 	startTime 	25200
scalar MyScenario.node[1].veinsmobility 	totalTime 	7.1
scalar MyScenario.node[1].veinsmobility 	stopTime 	25207.2
scalar MyScenario.node[1].veinsmobility 	minSpeed 	29.880477474674
scalar MyScenario.node[1].veinsmobility 	maxSpeed 	30.174368030825
scalar MyScenario.node[1].veinsmobility 	totalDistance 	212.85180453623
scalar MyScenario.node[1].veinsmobility 	totalCO2Emission 	44.711681293556
scalar MyScenario.node[120].appl 	generatedWSMs 	0
scalar MyScenario.node[120].appl 	receivedWSMs 	0
scalar MyScenario.node[120].appl 	generatedBSMs 	7
scalar MyScenario.node[120].appl 	receivedBSMs 	141
scalar MyScenario.node[120].appl 	generatedWSAs 	0
scalar MyScenario.node[120].appl 	receivedWSAs 	0
scalar MyScenario.node[120].nic.phy80211p 	busyTime 	0.0020087671232877
scalar MyScenario.node[120].nic.mac1609_4 	ReceivedUnicastPackets 	0
scalar MyScenario.node[120].nic.mac1609_4 	ReceivedBroadcasts 	141
scalar MyScenario.node[120].nic.mac1609_4 	SentPackets 	7
scalar MyScenario.node[120].nic.mac1609_4 	SNIRLostPackets 	0
scalar MyScenario.node[120].nic.mac1609_4 	RXTXLostPackets 	0
scalar MyScenario.node[120].nic.mac1609_4 	TotalLostPackets 	0
scalar MyScenario.node[120].nic.mac1609_4 	DroppedPacketsInMac 	0
scalar MyScenario.node[120].nic.mac1609_4 	TooLittleTime 	0
scalar MyScenario.node[120].nic.mac1609_4 	TimesIntoBackoff 	7
scalar MyScenario.node[120].nic.mac1609_4 	SlotsBackoff 	11
scalar MyScenario.node[120].nic.mac1609_4 	NumInternalContention 	0
scalar MyScenario.node[120].nic.mac1609_4 	totalBusyTime 	0.015399
scalar MyScenario.node[120].veinsmobility 	startTime 	25200
scalar MyScenario.node[120].veinsmobility 	totalTime 	7.2
scalar MyScenario.node[120].veinsmobility 	stopTime 	25207.3
scalar MyScenario.node[120].veinsmobility 	minSpeed 	1.5834228039714
scalar MyScenario.node[120].veinsmobility 	maxSpeed 	17.636969610906
scalar MyScenario.node[120].veinsmobility 	totalDistance 	92.723305448023
scalar MyScenario.node[120].veinsmobility 	totalCO2Emission 	23.57026575862
scalar MyScenario.node[4].appl 	generatedWSMs 	0
scalar MyScenario.node[4].appl 	receivedWSMs 	0
scalar MyScenario.node[4].appl 	generatedBSMs 	8
scalar MyScenario.node[4].appl 	receivedBSMs 	167
scalar MyScenario.node[4].appl 	generatedWSAs 	0
scalar MyScenario.node[4].appl 	receivedWSAs 	0
scalar MyScenario.node[4].nic.phy80211p 	busyTime 	0.0020432941176471
scalar MyScenario.node[4].nic.mac1609_4 	ReceivedUnicastPackets 	0
scalar MyScenario.node[4].nic.mac1609_4 	ReceivedBroadcasts 	167
scalar MyScenario.node[4].nic.mac1609_4 	SentPackets 	8
scalar MyScenario.node[4].nic.mac1609_4 	SNIRLostPackets 	0
scalar MyScenario.node[4].nic.mac1609_4 	RXTXLostPackets 	0
scalar MyScenario.node[4].nic.mac1609_4 	TotalLostPackets 	0
scalar MyScenario.node[4].nic.mac1609_4 	DroppedPacketsInMac 	0
scalar MyScenario.node[4].nic.mac1609_4 	TooLittleTime 	0
scalar MyScenario.node[4].nic.mac1609_4 	TimesIntoBackoff 	8
scalar MyScenario.node[4].nic.mac1609_4 	SlotsBackoff 	14
scalar MyScenario.node[4].nic.mac1609_4 	NumInternalContention 	0
scalar MyScenario.node[4].nic.mac1609_4 	totalBusyTime 	0.018208
scalar MyScenario.node[4].veinsmobility 	startTime 	25200
scalar MyScenario.node[4].veinsmobility 	totalTime 	8.4
scalar MyScenario.node[4].veinsmobility 	stopTime 	25208.5
scalar MyScenario.node[4].veinsmobility 	minSpeed 	29.94321467296
scalar MyScenario.node[4].veinsmobility 	maxSpeed 	30.435760877503
scalar MyScenario.node[4].veinsmobility 	totalDistance 	253.64446054056
scalar MyScenario.node[4].veinsmobility 	totalCO2Emission 	48.719369499605
scalar MyScenario.node[96].appl 	generatedWSMs 	0
scalar MyScenario.node[96].appl 	receivedWSMs 	0
scalar MyScenario.node[96].appl 	generatedBSMs 	9
scalar MyScenario.node[96].appl 	receivedBSMs 	14
scalar MyScenario.node[96].appl 	generatedWSAs 	0
scalar MyScenario.node[96].appl 	receivedWSAs 	0
scalar MyScenario.node[96].nic.phy80211p 	busyTime 	0.0001693023255814
scalar MyScenario.node[96].nic.mac1609_4 	ReceivedUnicastPackets 	0
scalar MyScenario.node[96].nic.mac1609_4 	ReceivedBroadcasts 	14
scalar MyScenario.node[96].nic.mac1609_4 	SentPackets 	9
scalar MyScenario.node[96].nic.mac1609_4 	SNIRLostPackets 	0
scalar MyScenario.node[96].nic.mac1609_4 	RXTXLostPackets 	0
scalar MyScenario.node[96].nic.mac1609_4 	TotalLostPackets 	0
scalar MyScenario.node[96].nic.mac1609_4 	DroppedPacketsInMac 	0
scalar MyScenario.node[96].nic.mac1609_4 	TooLittleTime 	0
scalar MyScenario.node[96].nic.mac1609_4 	TimesIntoBackoff 	9
scalar MyScenario.node[96].nic.mac1609_4 	SlotsBackoff 	20
scalar MyScenario.node[96].nic.mac1609_4 	NumInternalContention 	0
scalar MyScenario.node[96].nic.mac1609_4 	totalBusyTime 	0.002401
scalar MyScenario.node[96].veinsmobility 	startTime 	25200
scalar MyScenario.node[96].veinsmobility 	totalTime 	8.5
scalar MyScenario.node[96].veinsmobility 	stopTime 	25208.6
scalar MyScenario.node[96].veinsmobility 	minSpeed 	3.4564683148163
scalar MyScenario.node[96].veinsmobility 	maxSpeed 	15.543064596661
scalar MyScenario.node[96].veinsmobility 	totalDistance 	82.038838544431
scalar MyScenario.node[96].veinsmobility 	totalCO2Emission 	40.812405762193
scalar MyScenario.node[2].appl 	generatedWSMs 	0
scalar MyScenario.node[2].appl 	receivedWSMs 	0
scalar MyScenario.node[2].appl 	generatedBSMs 	9
scalar MyScenario.node[2].appl 	receivedBSMs 	204
scalar MyScenario.node[2].appl 	generatedWSAs 	0
scalar MyScenario.node[2].appl 	receivedWSAs 	0
scalar MyScenario.node[2].nic.phy80211p 	busyTime 	0.0022812903225806
scalar MyScenario.node[2].nic.mac1609_4 	ReceivedUnicastPackets 	0
scalar MyScenario.node[2].nic.mac1609_4 	ReceivedBroadcasts 	204
scalar MyScenario.node[2].nic.mac1609_4 	SentPackets 	9
scalar MyScenario.node[2].nic.mac1609_4 	SNIRLostPackets 	0
scalar MyScenario.node[2].nic.mac1609_4 	RXTXLostPackets 	0
scalar MyScenario.node[2].nic.mac1609_4 	TotalLostPackets 	0
scalar MyScenario.node[2].nic.mac1609_4 	DroppedPacketsInMac 	0
scalar MyScenario.node[2].nic.mac1609_4 	TooLittleTime 	0
scalar MyScenario.node[2].nic.mac1609_4 	TimesIntoBackoff 	9
scalar MyScenario.node[2].nic.mac1609_4 	SlotsBackoff 	14
scalar MyScenario.node[2].nic.mac1609_4 	NumInternalContention 	0
scalar MyScenario.node[2].nic.mac1609_4 	totalBusyTime 	0.022161
scalar MyScenario.node[2].veinsmobility 	startTime 	25200
scalar MyScenario.node[2].veinsmobility 	totalTime 	9.2
scalar MyScenario.node[2].veinsmobility 	stopTime 	25209.3
scalar MyScenario.node[2].veinsmobility 	minSpeed 	33.065929696305
scalar MyScenario.node[2].veinsmobility 	maxSpeed 	34.272936588546
scalar MyScenario.node[2].veinsmobility 	totalDistance 	312.86369031918
scalar MyScenario.node[2].veinsmobility 	totalCO2Emission 	53.05537322088
scalar MyScenario.node[111].appl 	generatedWSMs 	0
scalar MyScenario.node[111].appl 	receivedWSMs 	0
scalar MyScenario.node[111].appl 	generatedBSMs 	9
scalar MyScenario.node[111].appl 	receivedBSMs 	73
scalar MyScenario.node[111].appl 	generatedWSAs 	0
scalar MyScenario.node[111].appl 	receivedWSAs 	0
scalar MyScenario.node[111].nic.phy80211p 	busyTime 	0.00081634408602151
scalar MyScenario.node[111].nic.mac1609_4 	ReceivedUnicastPackets 	0
scalar MyScenario.node[111].nic.mac1609_4 	ReceivedBroadcasts 	73
scalar MyScenario.node[111].nic.mac1609_4 	SentPackets 	9
scalar MyScenario.node[111].nic.mac1609_4 	SNIRLostPackets 	0
scalar MyScenario.node[111].nic.mac1609_4 	RXTXLostPackets 	0
scalar MyScenario.node[111].nic.mac1609_4 	TotalLostPackets 	0
scalar MyScenario.node[111].nic.mac1609_4 	DroppedPacketsInMac 	0
scalar MyScenario.node[111].nic.mac1609_4 	TooLittleTime 	0
scalar MyScenario.node[111].nic.mac1609_4 	TimesIntoBackoff 	9
scalar MyScenario.node[111].nic.mac1609_4 	SlotsBackoff 	16
scalar MyScenario.node[111].nic.mac1609_4 	NumInternalContention 	0
scalar MyScenario.node[111].nic.mac1609_4 	totalBusyTime 	0.008537
scalar MyScenario.node[111].veinsmobility 	startTime 	25200
scalar MyScenario.node[111].veinsmobility 	totalTime 	9.2
scalar MyScenario.node[111].veinsmobility 	stopTime 	25209.3
scalar MyScenario.node[111].veinsmobility 	minSpeed 	0.24783426373969
scalar MyScenario.node[111].veinsmobility 	maxSpeed 	14.997586658784
scalar MyScenario.node[111].veinsmobility 	totalDistance 	82.294996323024
scalar MyScenario.node[111].veinsmobility 	totalCO2Emission 	42.930759056564
scalar MyScenario.node[139].appl 	generatedWSMs 	0
scalar MyScenario.node[139].appl 	receivedWSMs 	0
scalar MyScenario.node[139].appl 	generatedBSMs 	10
scalar MyScenario.node[139].appl 	receivedBSMs 	109
scalar MyScenario.node[139].appl 	generatedWSAs 	0
scalar MyScenario.node[139].appl 	receivedWSAs 	0
scalar MyScenario.node[139].nic.phy80211p 	busyTime 	0.0012189247311828
scalar MyScenario.node[139].nic.mac1609_4 	ReceivedUnicastPackets 	0
scalar MyScenario.node[139].nic.mac1609_4 	ReceivedBroadcasts 	109
scalar MyScenario.node[139].nic.mac1609_4 	SentPackets 	10
scalar MyScenario.node[139].nic.mac1609_4 	SNIRLostPackets 	0
scalar MyScenario.node[139].nic.mac1609_4 	RXTXLostPackets 	0
scalar MyScenario.node[139].nic.mac1609_4 	TotalLostPackets 	0
scalar MyScenario.node[139].nic.mac1609_4 	DroppedPacketsInMac 	0
scalar MyScenario.node[139].nic.mac1609_4 	TooLittleTime 	0
scalar MyScenario.node[139].nic.mac1609_4 	TimesIntoBackoff 	13
scalar MyScenario.node[139].nic.mac1609_4 	SlotsBackoff 	11
scalar MyScenario.node[139].nic.mac1609_4 	NumInternalContention 	0
scalar MyScenario.node[139].nic.mac1609_4 	totalBusyTime 	0.012386
scalar MyScenario.node[139].veinsmobility 	startTime 	25200
scalar MyScenario.node[139].veinsmobility 	totalTime 	9.2
scalar MyScenario.node[139].veinsmobility 	stopTime 	25209.3
scalar MyScenario.node[139].veinsmobility 	minSpeed 	16.136969522478
scalar MyScenario.node[139].veinsmobility 	maxSpeed 	16.261813707645
scalar MyScenario.node[139].veinsmobility 	totalDistance 	148.32624770684
scalar MyScenario.node[139].veinsmobility 	totalCO2Emission 	24.520752997074
scalar MyScenario.node[143].appl 	generatedWSMs 	0
scalar MyScenario.node[143].appl 	receivedWSMs 	0
scalar MyScenario.node[143].appl 	generatedBSMs 	10
scalar MyScenario.node[143].appl 	receivedBSMs 	197
scalar MyScenario.node[143].appl 	generatedWSAs 	0
scalar MyScenario.node[143].appl 	receivedWSAs 	0
scalar MyScenario.node[143].nic.phy80211p 	busyTime 	0.0021121649484536
scalar MyScenario.node[143].nic.mac1609_4 	ReceivedUnicastPackets 	0
scalar MyScenario.node[143].nic.mac1609_4 	ReceivedBroadcasts 	197
scalar MyScenario.node[143].nic.mac1609_4 	SentPackets 	10
scalar MyScenario.node[143].nic.mac1609_4 	SNIRLostPackets 	0
scalar MyScenario.node[143].nic.mac1609_4 	RXTXLostPackets 	0
scalar MyScenario.node[143].nic.mac1609_4 	TotalLostPackets 	0
scalar MyScenario.node[143].nic.mac1609_4 	DroppedPacketsInMac 	0
scalar MyScenario.node[143].nic.mac1609_4 	TooLittleTime 	0
scalar MyScenario.node[143].nic.mac1609_4 	TimesIntoBackoff 	10
scalar MyScenario.node[143].nic.mac1609_4 	SlotsBackoff 	11
scalar MyScenario.node[143].nic.mac1609_4 	NumInternalContention 	0
scalar MyScenario.node[143].nic.mac1609_4 	totalBusyTime 	0.021538
scalar MyScenario.node[143].veinsmobility 	startTime 	25200
scalar MyScenario.node[143].veinsmobility 	totalTime 	9.6
scalar MyScenario.node[143].veinsmobility 	stopTime 	25209.7
scalar MyScenario.node[143].veinsmobility 	minSpeed 	30.093619795533
scalar MyScenario.node[143].veinsmobility 	maxSpeed 	30.745020481033
scalar MyScenario.node[143].veinsmobility 	totalDistance 	292.14057192725
scalar MyScenario.node[143].veinsmobility 	totalCO2Emission 	54.385843555635
scalar MyScenario.node[5].appl 	generatedWSMs 	0
scalar MyScenario.node[5].appl 	receivedWSMs 	0
scalar MyScenario.node[5].appl 	generatedBSMs 	11
scalar MyScenario.node[5].appl 	receivedBSMs 	226
scalar MyScenario.node[5].appl 	generatedWSAs 	0
scalar MyScenario.node[5].appl 	receivedWSAs 	0
scalar MyScenario.node[5].nic.phy80211p 	busyTime 	0.0023271287128713
scalar MyScenario.node[5].nic.mac1609_4 	ReceivedUnicastPackets 	0
scalar MyScenario.node[5].nic.mac1609_4 	ReceivedBroadcasts 	226
scalar MyScenario.node[5].nic.mac1609_4 	SentPackets 	11
scalar MyScenario.node[5].nic.mac1609_4 	SNIRLostPackets 	0
scalar MyScenario.node[5].nic.mac1609_4 	RXTXLostPackets 	0
scalar MyScenario.node[5].nic.mac1609_4 	TotalLostPackets 	0
scalar MyScenario.node[5].nic.mac1609_4 	DroppedPacketsInMac 	0
scalar MyScenario.node[5].nic.mac1609_4 	TooLittleTime 	0
scalar MyScenario.node[5].nic.mac1609_4 	TimesIntoBackoff 	11
scalar MyScenario.node[5].nic.mac1609_4 	SlotsBackoff 	23
scalar MyScenario.node[5].nic.mac1609_4 	NumInternalContention 	0
scalar MyScenario.node[5].nic.mac1609_4 	totalBusyTime 	0.024659
scalar MyScenario.node[5].veinsmobility 	startTime 	25200
scalar MyScenario.node[5].veinsmobility 	totalTime 	10
scalar MyScenario.node[5].veinsmobility 	stopTime 	25210.1
scalar MyScenario.node[5].veinsmobility 	minSpeed 	31.573398175001
scalar MyScenario.node[5].veinsmobility 	maxSpeed 	35.574028444748
scalar MyScenario.node[5].veinsmobility 	totalDistance 	332.61913803616
scalar MyScenario.node[5].veinsmobility 	totalCO2Emission 	54.41170171716
scalar MyScenario.node[48].appl 	generatedWSMs 	0
scalar MyScenario.node[48].appl 	receivedWSMs 	0
scalar MyScenario.node[48].appl 	generatedBSMs 	10
scalar MyScenario.node[48].appl 	receivedBSMs 	44
scalar MyScenario.node[48].appl 	generatedWSAs 	0
scalar MyScenario.node[48].appl 	receivedWSAs 	0
scalar MyScenario.node[48].nic.phy80211p 	busyTime 	0.00044862745098039
scalar MyScenario.node[48].nic.mac1609_4 	ReceivedUnicastPackets 	0
scalar MyScenario.node[48].nic.mac1609_4 	ReceivedBroadcasts 	44
scalar MyScenario.node[48].nic.mac1609_4 	SentPackets 	10
scalar MyScenario.node[48].nic.mac1609_4 	SNIRLostPackets 	0
scalar MyScenario.node[48].nic.mac1609_4 	RXTXLostPackets 	0
scalar MyScenario.node[48].nic.mac1609_4 	TotalLostPackets 	0
scalar MyScenario.node[48].nic.mac1609_4 	DroppedPacketsInMac 	0
scalar MyScenario.node[48].nic.mac1609_4 	TooLittleTime 	0
scalar MyScenario.node[48].nic.mac1609_4 	TimesIntoBackoff 	10
scalar MyScenario.node[48].nic.mac1609_4 	SlotsBackoff 	16
scalar MyScenario.node[48].nic.mac1609_4 	NumInternalContention 	0
scalar MyScenario.node[48].nic.mac1609_4 	totalBusyTime 	0.005626
scalar MyScenario.node[48].veinsmobility 	startTime 	25200
scalar MyScenario.node[48].veinsmobility 	totalTime 	10.1
scalar MyScenario.node[48].veinsmobility 	stopTime 	25210.2
scalar MyScenario.node[48].veinsmobility 	minSpeed 	8.765251383225
scalar MyScenario.node[48].veinsmobility 	maxSpeed 	12.871958091273
scalar MyScenario.node[48].veinsmobility 	totalDistance 	129.5235098213
scalar MyScenario.node[48].veinsmobility 	totalCO2Emission 	32.084753242198
scalar MyScenario.node[151].appl 	generatedWSMs 	0
scalar MyScenario.node[151].appl 	receivedWSMs 	0
scalar MyScenario.node[151].appl 	generatedBSMs 	11
scalar MyScenario.node[151].appl 	receivedBSMs 	224
scalar MyScenario.node[151].appl 	generatedWSAs 	0
scalar MyScenario.node[151].appl 	receivedWSAs 	0
scalar MyScenario.node[151].nic.phy80211p 	busyTime 	0.0022285714285714
scalar MyScenario.node[151].nic.mac1609_4 	ReceivedUnicastPackets 	0
scalar MyScenario.node[151].nic.mac1609_4 	ReceivedBroadcasts 	224
scalar MyScenario.node[151].nic.mac1609_4 	SentPackets 	11
scalar MyScenario.node[151].nic.mac1609_4 	SNIRLostPackets 	1
scalar MyScenario.node[151].nic.mac1609_4 	RXTXLostPackets 	0
scalar MyScenario.node[151].nic.mac1609_4 	TotalLostPackets 	1
scalar MyScenario.node[151].nic.mac1609_4 	DroppedPacketsInMac 	0
scalar MyScenario.node[151].nic.mac1609_4 	TooLittleTime 	0
scalar MyScenario.node[151].nic.mac1609_4 	TimesIntoBackoff 	11
scalar MyScenario.node[151].nic.mac1609_4 	SlotsBackoff 	16
scalar MyScenario.node[151].nic.mac1609_4 	NumInternalContention 	0
scalar MyScenario.node[151].nic.mac1609_4 	totalBusyTime 	0.024555
scalar MyScenario.node[151].veinsmobility 	startTime 	25200
scalar MyScenario.node[151].veinsmobility 	totalTime 	10.4
scalar MyScenario.node[151].veinsmobility 	stopTime 	25210.5
scalar MyScenario.node[151].veinsmobility 	minSpeed 	32.787490763699
scalar MyScenario.node[151].veinsmobility 	maxSpeed 	34.317468631968
scalar MyScenario.node[151].veinsmobility 	totalDistance 	352.71268558873
scalar MyScenario.node[151].veinsmobility 	totalCO2Emission 	62.998599811985
scalar MyScenario.node[155].appl 	generatedWSMs 	0
scalar MyScenario.node[155].appl 	receivedWSMs 	0
scalar MyScenario.node[155].appl 	generatedBSMs 	11
scalar MyScenario.node[155].appl 	receivedBSMs 	111
scalar MyScenario.node[155].appl 	generatedWSAs 	0
scalar MyScenario.node[155].appl 	receivedWSAs 	0
scalar MyScenario.node[155].nic.phy80211p 	busyTime 	0.0010590825688073
scalar MyScenario.node[155].nic.mac1609_4 	ReceivedUnicastPackets 	0
scalar MyScenario.node[155].nic.mac1609_4 	ReceivedBroadcasts 	111
scalar MyScenario.node[155].nic.mac1609_4 	SentPackets 	11
scalar MyScenario.node[155].nic.mac1609_4 	SNIRLostPackets 	0
scalar MyScenario.node[155].nic.mac1609_4 	RXTXLostPackets 	0
scalar MyScenario.node[155].nic.mac1609_4 	TotalLostPackets 	0
scalar MyScenario.node[155].nic.mac1609_4 	DroppedPacketsInMac 	0
scalar MyScenario.node[155].nic.mac1609_4 	TooLittleTime 	0
scalar MyScenario.node[155].nic.mac1609_4 	TimesIntoBackoff 	11
scalar MyScenario.node[155].nic.mac1609_4 	SlotsBackoff 	21
scalar MyScenario.node[155].nic.mac1609_4 	NumInternalContention 	0
scalar MyScenario.node[155].nic.mac1609_4 	totalBusyTime 	0.012699
scalar MyScenario.node[155].veinsmobility 	startTime 	25200
scalar MyScenario.node[155].veinsmobility 	totalTime 	10.8
scalar MyScenario.node[155].veinsmobility 	stopTime 	25210.9
scalar MyScenario.node[155].veinsmobility 	minSpeed 	0.25621400046446
scalar MyScenario.node[155].veinsmobility 	maxSpeed 	15.830130003636
scalar MyScenario.node[155].veinsmobility 	totalDistance 	100.11430539672
scalar MyScenario.node[155].veinsmobility 	totalCO2Emission 	46.662444685005
scalar MyScenario.node[182].appl 	generatedWSMs 	0
scalar MyScenario.node[182].appl 	receivedWSMs 	0
scalar MyScenario.node[182].appl 	generatedBSMs 	11
scalar MyScenario.node[182].appl 	receivedBSMs 	64
scalar MyScenario.node[182].appl 	generatedWSAs 	0
scalar MyScenario.node[182].appl 	receivedWSAs 	0
scalar MyScenario.node[182].nic.phy80211p 	busyTime 	0.00060509090909091
scalar MyScenario.node[182].nic.mac1609_4 	ReceivedUnicastPackets 	0
scalar MyScenario.node[182].nic.mac1609_4 	ReceivedBroadcasts 	64
scalar MyScenario.node[182].nic.mac1609_4 	SentPackets 	11
scalar MyScenario.node[182].nic.mac1609_4 	SNIRLostPackets 	0
scalar MyScenario.node[182].nic.mac1609_4 	RXTXLostPackets 	0
scalar MyScenario.node[182].nic.mac1609_4 	TotalLostPackets 	0
scalar MyScenario.node[182].nic.mac1609_4 	DroppedPacketsInMac 	0
scalar MyScenario.node[182].nic.mac1609_4 	TooLittleTime 	0
scalar MyScenario.node[182].nic.mac1609_4 	TimesIntoBackoff 	11
scalar MyScenario.node[182].nic.mac1609_4 	SlotsBackoff 	14
scalar MyScenario.node[182].nic.mac1609_4 	NumInternalContention 	0
scalar MyScenario.node[182].nic.mac1609_4 	totalBusyTime 	0.007811
scalar MyScenario.node[182].veinsmobility 	startTime 	25200
scalar MyScenario.node[182].veinsmobility 	totalTime 	10.9
scalar MyScenario.node[182].veinsmobility 	stopTime 	25211
scalar MyScenario.node[182].veinsmobility 	minSpeed 	0.25834141237114
scalar MyScenario.node[182].veinsmobility 	maxSpeed 	15.193676940432
scalar MyScenario.node[182].veinsmobility 	totalDistance 	88.375620580827
scalar MyScenario.node[182].veinsmobility 	totalCO2Emission 	43.485397565643
scalar MyScenario.node[6].appl 	generatedWSMs 	0
scalar MyScenario.node[6].appl 	receivedWSMs 	0
scalar MyScenario.node[6].appl 	generatedBSMs 	11
scalar MyScenario.node[6].appl 	receivedBSMs 	242
scalar MyScenario.node[6].appl 	generatedWSAs 	0
scalar MyScenario.node[6].appl 	receivedWSAs 	0
scalar MyScenario.node[6].nic.phy80211p 	busyTime 	0.0021885217391304
scalar MyScenario.node[6].nic.mac1609_4 	ReceivedUnicastPackets 	0
scalar MyScenario.node[6].nic.mac1609_4 	ReceivedBroadcasts 	242
scalar MyScenario.node[6].nic.mac1609_4 	SentPackets 	11
scalar MyScenario.node[6].nic.mac1609_4 	SNIRLostPackets 	0
scalar MyScenario.node[6].nic.mac1609_4 	RXTXLostPackets 	0
scalar MyScenario.node[6].nic.mac1609_4 	TotalLostPackets 	0
scalar MyScenario.node[6].nic.mac1609_4 	DroppedPacketsInMac 	0
scalar MyScenario.node[6].nic.mac1609_4 	TooLittleTime 	0
scalar MyScenario.node[6].nic.mac1609_4 	TimesIntoBackoff 	11
scalar MyScenario.node[6].nic.mac1609_4 	SlotsBackoff 	18
scalar MyScenario.node[6].nic.mac1609_4 	NumInternalContention 	0
scalar MyScenario.node[6].nic.mac1609_4 	totalBusyTime 	0.026323
scalar MyScenario.node[6].veinsmobility 	startTime 	25200
scalar MyScenario.node[6].veinsmobility 	totalTime 	11.4
scalar MyScenario.node[6].veinsmobility 	stopTime 	25211.5
scalar MyScenario.node[6].veinsmobility 	minSpeed 	31.796523251914
scalar MyScenario.node[6].veinsmobility 	maxSpeed 	36.360632625186
scalar MyScenario.node[6].veinsmobility 	totalDistance 	383.93654015175
scalar MyScenario.node[6].veinsmobility 	totalCO2Emission 	62.394218705571
scalar MyScenario.node[124].appl 	generatedWSMs 	0
scalar MyScenario.node[124].appl 	receivedWSMs 	0
scalar MyScenario.node[124].appl 	generatedBSMs 	12
scalar MyScenario.node[124].appl 	receivedBSMs 	302
scalar MyScenario.node[124].appl 	generatedWSAs 	0
scalar MyScenario.node[124].appl 	receivedWSAs 	0
scalar MyScenario.node[124].nic.phy80211p 	busyTime 	0.0026933333333333
scalar MyScenario.node[124].nic.mac1609_4 	ReceivedUnicastPackets 	0
scalar MyScenario.node[124].nic.mac1609_4 	ReceivedBroadcasts 	302
scalar MyScenario.node[124].nic.mac1609_4 	SentPackets 	12
scalar MyScenario.node[124].nic.mac1609_4 	SNIRLostPackets 	1
scalar MyScenario.node[124].nic.mac1609_4 	RXTXLostPackets 	0
scalar MyScenario.node[124].nic.mac1609_4 	TotalLostPackets 	1
scalar MyScenario.node[124].nic.mac1609_4 	DroppedPacketsInMac 	0
scalar MyScenario.node[124].nic.mac1609_4 	TooLittleTime 	0
scalar MyScenario.node[124].nic.mac1609_4 	TimesIntoBackoff 	12
scalar MyScenario.node[124].nic.mac1609_4 	SlotsBackoff 	20
scalar MyScenario.node[124].nic.mac1609_4 	NumInternalContention 	0
scalar MyScenario.node[124].nic.mac1609_4 	totalBusyTime 	0.032772
scalar MyScenario.node[124].veinsmobility 	startTime 	25200
scalar MyScenario.node[124].veinsmobility 	totalTime 	11.6
scalar MyScenario.node[124].veinsmobility 	stopTime 	25211.7
scalar MyScenario.node[124].veinsmobility 	minSpeed 	38.74721094046
scalar MyScenario.node[124].veinsmobility 	maxSpeed 	38.895882355617
scalar MyScenario.node[124].veinsmobility 	totalDistance 	451.21749305081
scalar MyScenario.node[124].veinsmobility 	totalCO2Emission 	96.81692323085
scalar MyScenario.node[3].appl 	generatedWSMs 	0
scalar MyScenario.node[3].appl 	receivedWSMs 	0
scalar MyScenario.node[3].appl 	generatedBSMs 	11
scalar MyScenario.node[3].appl 	receivedBSMs 	269
scalar MyScenario.node[3].appl 	generatedWSAs 	0
scalar MyScenario.node[3].appl 	receivedWSAs 	0
scalar MyScenario.node[3].nic.phy80211p 	busyTime 	0.0023708474576271
scalar MyScenario.node[3].nic.mac1609_4 	ReceivedUnicastPackets 	0
scalar MyScenario.node[3].nic.mac1609_4 	ReceivedBroadcasts 	269
scalar MyScenario.node[3].nic.mac1609_4 	SentPackets 	11
scalar MyScenario.node[3].nic.mac1609_4 	SNIRLostPackets 	0
scalar MyScenario.node[3].nic.mac1609_4 	RXTXLostPackets 	0
scalar MyScenario.node[3].nic.mac1609_4 	TotalLostPackets 	0
scalar MyScenario.node[3].nic.mac1609_4 	DroppedPacketsInMac 	0
scalar MyScenario.node[3].nic.mac1609_4 	TooLittleTime 	0
scalar MyScenario.node[3].nic.mac1609_4 	TimesIntoBackoff 	11
scalar MyScenario.node[3].nic.mac1609_4 	SlotsBackoff 	14
scalar MyScenario.node[3].nic.mac1609_4 	NumInternalContention 	0
scalar MyScenario.node[3].nic.mac1609_4 	totalBusyTime 	0.029131
scalar MyScenario.node[3].veinsmobility 	startTime 	25200
scalar MyScenario.node[3].veinsmobility 	totalTime 	11.7
scalar MyScenario.node[3].veinsmobility 	stopTime 	25211.8
scalar MyScenario.node[3].veinsmobility 	minSpeed 	32.61636555745
scalar MyScenario.node[3].veinsmobility 	maxSpeed 	34.434793134295
scalar MyScenario.node[3].veinsmobility 	totalDistance 	396.28996930683
scalar MyScenario.node[3].veinsmobility 	totalCO2Emission 	73.506169589778
scalar MyScenario.node[193].appl 	generatedWSMs 	0
scalar MyScenario.node[193].appl 	receivedWSMs 	0
scalar MyScenario.node[193].appl 	generatedBSMs 	12
scalar MyScenario.node[193].appl 	receivedBSMs 	193
scalar MyScenario.node[193].appl 	generatedWSAs 	0
scalar MyScenario.node[193].appl 	receivedWSAs 	0
scalar MyScenario.node[193].nic.phy80211p 	busyTime 	0.0016867226890756
scalar MyScenario.node[193].nic.mac1609_4 	ReceivedUnicastPackets 	0
scalar MyScenario.node[193].nic.mac1609_4 	ReceivedBroadcasts 	193
scalar MyScenario.node[193].nic.mac1609_4 	SentPackets 	12
scalar MyScenario.node[193].nic.mac1609_4 	SNIRLostPackets 	0
scalar MyScenario.node[193].nic.mac1609_4 	RXTXLostPackets 	0
scalar MyScenario.node[193].nic.mac1609_4 	TotalLostPackets 	0
scalar MyScenario.node[193].nic.mac1609_4 	DroppedPacketsInMac 	0
scalar MyScenario.node[193].nic.mac1609_4 	TooLittleTime 	0
scalar MyScenario.node[193].nic.mac1609_4 	TimesIntoBackoff 	12
scalar MyScenario.node[193].nic.mac1609_4 	SlotsBackoff 	27
scalar MyScenario.node[193].nic.mac1609_4 	NumInternalContention 	0
scalar MyScenario.node[193].nic.mac1609_4 	totalBusyTime 	0.021332
scalar MyScenario.node[193].veinsmobility 	startTime 	25200
scalar MyScenario.node[193].veinsmobility 	totalTime 	11.8
scalar MyScenario.node[193].veinsmobility 	stopTime 	25211.9
scalar MyScenario.node[193].veinsmobility 	minSpeed 	4.7434055270403e-14
scalar MyScenario.node[193].veinsmobility 	maxSpeed 	16.334922268467
scalar MyScenario.node[193].veinsmobility 	totalDistance 	93.620969892188
scalar MyScenario.node[193].veinsmobility 	totalCO2Emission 	49.029308366505
scalar MyScenario.node[144].appl 	generatedWSMs 	0
scalar MyScenario.node[144].appl 	receivedWSMs 	0
scalar MyScenario.node[144].appl 	generatedBSMs 	12
scalar MyScenario.node[144].appl 	receivedBSMs 	137
scalar MyScenario.node[144].appl 	generatedWSAs 	0
scalar MyScenario.node[144].appl 	receivedWSAs 	0
scalar MyScenario.node[144].nic.phy80211p 	busyTime 	0.0011490322580645
scalar MyScenario.node[144].nic.mac1609_4 	ReceivedUnicastPackets 	0
scalar MyScenario.node[144].nic.mac1609_4 	ReceivedBroadcasts 	137
scalar MyScenario.node[144].nic.mac1609_4 	SentPackets 	12
scalar MyScenario.node[144].nic.mac1609_4 	SNIRLostPackets 	0
scalar MyScenario.node[144].nic.mac1609_4 	RXTXLostPackets 	0
scalar MyScenario.node[144].nic.mac1609_4 	TotalLostPackets 	0
scalar MyScenario.node[144].nic.mac1609_4 	DroppedPacketsInMac 	0
scalar MyScenario.node[144].nic.mac1609_4 	TooLittleTime 	0
scalar MyScenario.node[144].nic.mac1609_4 	TimesIntoBackoff 	12
scalar MyScenario.node[144].nic.mac1609_4 	SlotsBackoff 	21
scalar MyScenario.node[144].nic.mac1609_4 	NumInternalContention 	0
scalar MyScenario.node[144].nic.mac1609_4 	totalBusyTime 	0.015508
scalar MyScenario.node[144].veinsmobility 	startTime 	25200
scalar MyScenario.node[144].veinsmobility 	totalTime 	12.3
scalar MyScenario.node[144].veinsmobility 	stopTime 	25212.4
scalar MyScenario.node[144].veinsmobility 	minSpeed 	0.23434634263073
scalar MyScenario.node[144].veinsmobility 	maxSpeed 	12.352535366118
scalar MyScenario.node[144].veinsmobility 	totalDistance 	104.78317555486
scalar MyScenario.node[144].veinsmobility 	totalCO2Emission 	46.357428136765
scalar MyScenario.node[10].appl 	generatedWSMs 	0
scalar MyScenario.node[10].appl 	receivedWSMs 	0
scalar MyScenario.node[10].appl 	generatedBSMs 	13
scalar MyScenario.node[10].appl 	receivedBSMs 	281
scalar MyScenario.node[10].appl 	generatedWSAs 	0
scalar MyScenario.node[10].appl 	receivedWSAs 	0
scalar MyScenario.node[10].nic.phy80211p 	busyTime 	0.0022467175572519
scalar MyScenario.node[10].nic.mac1609_4 	ReceivedUnicastPackets 	0
scalar MyScenario.node[10].nic.mac1609_4 	ReceivedBroadcasts 	281
scalar MyScenario.node[10].nic.mac1609_4 	SentPackets 	13
scalar MyScenario.node[10].nic.mac1609_4 	SNIRLostPackets 	2
scalar MyScenario.node[10].nic.mac1609_4 	RXTXLostPackets 	0
scalar MyScenario.node[10].nic.mac1609_4 	TotalLostPackets 	2
scalar MyScenario.node[10].nic.mac1609_4 	DroppedPacketsInMac 	0
scalar MyScenario.node[10].nic.mac1609_4 	TooLittleTime 	0
scalar MyScenario.node[10].nic.mac1609_4 	TimesIntoBackoff 	13
scalar MyScenario.node[10].nic.mac1609_4 	SlotsBackoff 	23
scalar MyScenario.node[10].nic.mac1609_4 	NumInternalContention 	0
scalar MyScenario.node[10].nic.mac1609_4 	totalBusyTime 	0.030693
scalar MyScenario.node[10].veinsmobility 	startTime 	25200
scalar MyScenario.node[10].veinsmobility 	totalTime 	13
scalar MyScenario.node[10].veinsmobility 	stopTime 	25213.1
scalar MyScenario.node[10].veinsmobility 	minSpeed 	32.590071981021
scalar MyScenario.node[10].veinsmobility 	maxSpeed 	34.762818173875
scalar MyScenario.node[10].veinsmobility 	totalDistance 	442.03275060118
scalar MyScenario.node[10].veinsmobility 	totalCO2Emission 	81.108683327557
scalar MyScenario.node[69].appl 	generatedWSMs 	0
scalar MyScenario.node[69].appl 	receivedWSMs 	0
scalar MyScenario.node[69].appl 	generatedBSMs 	13
scalar MyScenario.node[69].appl 	receivedBSMs 	136
scalar MyScenario.node[69].appl 	generatedWSAs 	0
scalar MyScenario.node[69].appl 	receivedWSAs 	0
scalar MyScenario.node[69].nic.phy80211p 	busyTime 	0.0010796946564885
scalar MyScenario.node[69].nic.mac1609_4 	ReceivedUnicastPackets 	0
scalar MyScenario.node[69].nic.mac1609_4 	ReceivedBroadcasts 	136
scalar MyScenario.node[69].nic.mac1609_4 	SentPackets 	13
scalar MyScenario.node[69].nic.mac1609_4 	SNIRLostPackets 	0
scalar MyScenario.node[69].nic.mac1609_4 	RXTXLostPackets 	0
scalar MyScenario.node[69].nic.mac1609_4 	TotalLostPackets 	0
scalar MyScenario.node[69].nic.mac1609_4 	DroppedPacketsInMac 	0
scalar MyScenario.node[69].nic.mac1609_4 	TooLittleTime 	0
scalar MyScenario.node[69].nic.mac1609_4 	TimesIntoBackoff 	13
scalar MyScenario.node[69].nic.mac1609_4 	SlotsBackoff 	18
scalar MyScenario.node[69].nic.mac1609_4 	NumInternalContention 	0
scalar MyScenario.node[69].nic.mac1609_4 	totalBusyTime 	0.015509
scalar MyScenario.node[69].veinsmobility 	startTime 	25200
scalar MyScenario.node[69].veinsmobility 	totalTime 	13
scalar MyScenario.node[69].veinsmobility 	stopTime 	25213.1
scalar MyScenario.node[69].veinsmobility 	minSpeed 	36.813673754679
scalar MyScenario.node[69].veinsmobility 	maxSpeed 	36.946972831906
scalar MyScenario.node[69].veinsmobility 	totalDistance 	480.6441770428
scalar MyScenario.node[69].veinsmobility 	totalCO2Emission 	97.076036447501
scalar MyScenario.node[24].appl 	generatedWSMs 	0
scalar MyScenario.node[24].appl 	receivedWSMs 	0
scalar MyScenario.node[24].appl 	generatedBSMs 	14
scalar MyScenario.node[24].appl 	receivedBSMs 	156
scalar MyScenario.node[24].appl 	generatedWSAs 	0
scalar MyScenario.node[24].appl 	receivedWSAs 	0
scalar MyScenario.node[24].nic.phy80211p 	busyTime 	0.0011842335766423
scalar MyScenario.node[24].nic.mac1609_4 	ReceivedUnicastPackets 	0
scalar MyScenario.node[24].nic.mac1609_4 	ReceivedBroadcasts 	156
scalar MyScenario.node[24].nic.mac1609_4 	SentPackets 	14
scalar MyScenario.node[24].nic.mac1609_4 	SNIRLostPackets 	0
scalar MyScenario.node[24].nic.mac1609_4 	RXTXLostPackets 	0
scalar MyScenario.node[24].nic.mac1609_4 	TotalLostPackets 	0
scalar MyScenario.node[24].nic.mac1609_4 	DroppedPacketsInMac 	0
scalar MyScenario.node[24].nic.mac1609_4 	TooLittleTime 	0
scalar MyScenario.node[24].nic.mac1609_4 	TimesIntoBackoff 	14
scalar MyScenario.node[24].nic.mac1609_4 	SlotsBackoff 	26
scalar MyScenario.node[24].nic.mac1609_4 	NumInternalContention 	0
scalar MyScenario.node[24].nic.mac1609_4 	totalBusyTime 	0.017694
scalar MyScenario.node[24].veinsmobility 	startTime 	25200
scalar MyScenario.node[24].veinsmobility 	totalTime 	13.6
scalar MyScenario.node[24].veinsmobility 	stopTime 	25213.7
scalar MyScenario.node[24].veinsmobility 	minSpeed 	37.633854948972
scalar MyScenario.node[24].veinsmobility 	maxSpeed 	37.761618016128
scalar MyScenario.node[24].veinsmobility 	totalDistance 	512.69922789498
scalar MyScenario.node[24].veinsmobility 	totalCO2Emission 	106.3487065847
scalar MyScenario.node[174].appl 	generatedWSMs 	0
scalar MyScenario.node[174].appl 	receivedWSMs 	0
scalar MyScenario.node[174].appl 	generatedBSMs 	14
scalar MyScenario.node[174].appl 	receivedBSMs 	151
scalar MyScenario.node[174].appl 	generatedWSAs 	0
scalar MyScenario.node[174].appl 	receivedWSAs 	0
scalar MyScenario.node[174].nic.phy80211p 	busyTime 	0.0011379710144928
scalar MyScenario.node[174].nic.mac1609_4 	ReceivedUnicastPackets 	0
scalar MyScenario.node[174].nic.mac1609_4 	ReceivedBroadcasts 	151
scalar MyScenario.node[174].nic.mac1609_4 	SentPackets 	14
scalar MyScenario.node[174].nic.mac1609_4 	SNIRLostPackets 	0
scalar MyScenario.node[174].nic.mac1609_4 	RXTXLostPackets 	0
scalar MyScenario.node[174].nic.mac1609_4 	TotalLostPackets 	0
scalar MyScenario.node[174].nic.mac1609_4 	DroppedPacketsInMac 	0
scalar MyScenario.node[174].nic.mac1609_4 	TooLittleTime 	0
scalar MyScenario.node[174].nic.mac1609_4 	TimesIntoBackoff 	14
scalar MyScenario.node[174].nic.mac1609_4 	SlotsBackoff 	18
scalar MyScenario.node[174].nic.mac1609_4 	NumInternalContention 	0
scalar MyScenario.node[174].nic.mac1609_4 	totalBusyTime 	0.017174
scalar MyScenario.node[174].veinsmobility 	startTime 	25200
scalar MyScenario.node[174].veinsmobility 	totalTime 	13.7
scalar MyScenario.node[174].veinsmobility 	stopTime 	25213.8
scalar MyScenario.node[174].veinsmobility 	minSpeed 	4.7321635703951e-14
scalar MyScenario.node[174].veinsmobility 	maxSpeed 	13.846455756402
scalar MyScenario.node[174].veinsmobility 	totalDistance 	109.34095441119
scalar MyScenario.node[174].veinsmobility 	totalCO2Emission 	51.683971734309
scalar MyScenario.node[85].appl 	generatedWSMs 	0
scalar MyScenario.node[85].appl 	receivedWSMs 	0
scalar MyScenario.node[85].appl 	generatedBSMs 	14
scalar MyScenario.node[85].appl 	receivedBSMs 	34
scalar MyScenario.node[85].appl 	generatedWSAs 	0
scalar MyScenario.node[85].appl 	receivedWSAs 	0
scalar MyScenario.node[85].nic.phy80211p 	busyTime 	0.00025438848920863
scalar MyScenario.node[85].nic.mac1609_4 	ReceivedUnicastPackets 	0
scalar MyScenario.node[85].nic.mac1609_4 	ReceivedBroadcasts 	34
scalar MyScenario.node[85].nic.mac1609_4 	SentPackets 	14
scalar MyScenario.node[85].nic.mac1609_4 	SNIRLostPackets 	0
scalar MyScenario.node[85].nic.mac1609_4 	RXTXLostPackets 	0
scalar MyScenario.node[85].nic.mac1609_4 	TotalLostPackets 	0
scalar MyScenario.node[85].nic.mac1609_4 	DroppedPacketsInMac 	0
scalar MyScenario.node[85].nic.mac1609_4 	TooLittleTime 	0
scalar MyScenario.node[85].nic.mac1609_4 	TimesIntoBackoff 	14
scalar MyScenario.node[85].nic.mac1609_4 	SlotsBackoff 	26
scalar MyScenario.node[85].nic.mac1609_4 	NumInternalContention 	0
scalar MyScenario.node[85].nic.mac1609_4 	totalBusyTime 	0.005006
scalar MyScenario.node[85].veinsmobility 	startTime 	25200
scalar MyScenario.node[85].veinsmobility 	totalTime 	13.8
scalar MyScenario.node[85].veinsmobility 	stopTime 	25213.9
scalar MyScenario.node[85].veinsmobility 	minSpeed 	12.066849929408
scalar MyScenario.node[85].veinsmobility 	maxSpeed 	13.451652888938
scalar MyScenario.node[85].veinsmobility 	totalDistance 	184.41880924596
scalar MyScenario.node[85].veinsmobility 	totalCO2Emission 	31.352628126029
scalar MyScenario.node[109].appl 	generatedWSMs 	0
scalar MyScenario.node[109].appl 	receivedWSMs 	0
scalar MyScenario.node[109].appl 	generatedBSMs 	14
scalar MyScenario.node[109].appl 	receivedBSMs 	55
scalar MyScenario.node[109].appl 	generatedWSAs 	0
scalar MyScenario.node[109].appl 	receivedWSAs 	0
scalar MyScenario.node[109].nic.phy80211p 	busyTime 	0.0004
scalar MyScenario.node[109].nic.mac1609_4 	ReceivedUnicastPackets 	0
scalar MyScenario.node[109].nic.mac1609_4 	ReceivedBroadcasts 	55
scalar MyScenario.node[109].nic.mac1609_4 	SentPackets 	14
scalar MyScenario.node[109].nic.mac1609_4 	SNIRLostPackets 	0
scalar MyScenario.node[109].nic.mac1609_4 	RXTXLostPackets 	0
scalar MyScenario.node[109].nic.mac1609_4 	TotalLostPackets 	0
scalar MyScenario.node[109].nic.mac1609_4 	DroppedPacketsInMac 	0
scalar MyScenario.node[109].nic.mac1609_4 	TooLittleTime 	0
scalar MyScenario.node[109].nic.mac1609_4 	TimesIntoBackoff 	14
scalar MyScenario.node[109].nic.mac1609_4 	SlotsBackoff 	21
scalar MyScenario.node[109].nic.mac1609_4 	NumInternalContention 	0
scalar MyScenario.node[109].nic.mac1609_4 	totalBusyTime 	0.00719
scalar MyScenario.node[109].veinsmobility 	startTime 	25200
scalar MyScenario.node[109].veinsmobility 	totalTime 	14.2
scalar MyScenario.node[109].veinsmobility 	stopTime 	25214.3
scalar MyScenario.node[109].veinsmobility 	minSpeed 	0.42780973544635
scalar MyScenario.node[109].veinsmobility 	maxSpeed 	13.497077148006
scalar MyScenario.node[109].veinsmobility 	totalDistance 	81.9188288487
scalar MyScenario.node[109].veinsmobility 	totalCO2Emission 	40.41024492286
scalar MyScenario.node[81].appl 	generatedWSMs 	0
scalar MyScenario.node[81].appl 	receivedWSMs 	0
scalar MyScenario.node[81].appl 	generatedBSMs 	15
scalar MyScenario.node[81].appl 	receivedBSMs 	400
scalar MyScenario.node[81].appl 	generatedWSAs 	0
scalar MyScenario.node[81].appl 	receivedWSAs 	0
scalar MyScenario.node[81].nic.phy80211p 	busyTime 	0.002865306122449
scalar MyScenario.node[81].nic.mac1609_4 	ReceivedUnicastPackets 	0
scalar MyScenario.node[81].nic.mac1609_4 	ReceivedBroadcasts 	400
scalar MyScenario.node[81].nic.mac1609_4 	SentPackets 	15
scalar MyScenario.node[81].nic.mac1609_4 	SNIRLostPackets 	5
scalar MyScenario.node[81].nic.mac1609_4 	RXTXLostPackets 	0
scalar MyScenario.node[81].nic.mac1609_4 	TotalLostPackets 	5
scalar MyScenario.node[81].nic.mac1609_4 	DroppedPacketsInMac 	0
scalar MyScenario.node[81].nic.mac1609_4 	TooLittleTime 	0
scalar MyScenario.node[81].nic.mac1609_4 	TimesIntoBackoff 	15
scalar MyScenario.node[81].nic.mac1609_4 	SlotsBackoff 	23
scalar MyScenario.node[81].nic.mac1609_4 	NumInternalContention 	0
scalar MyScenario.node[81].nic.mac1609_4 	totalBusyTime 	0.043487
scalar MyScenario.node[81].veinsmobility 	startTime 	25200
scalar MyScenario.node[81].veinsmobility 	totalTime 	14.6
scalar MyScenario.node[81].veinsmobility 	stopTime 	25214.7
scalar MyScenario.node[81].veinsmobility 	minSpeed 	30.797496423293
scalar MyScenario.node[81].veinsmobility 	maxSpeed 	30.945389519893
scalar MyScenario.node[81].veinsmobility 	totalDistance 	450.22887892827
scalar MyScenario.node[81].veinsmobility 	totalCO2Emission 	81.394100656307
scalar MyScenario.node[133].appl 	generatedWSMs 	0
scalar MyScenario.node[133].appl 	receivedWSMs 	0
scalar MyScenario.node[133].appl 	generatedBSMs 	15
scalar MyScenario.node[133].appl 	receivedBSMs 	69
scalar MyScenario.node[133].appl 	generatedWSAs 	0
scalar MyScenario.node[133].appl 	receivedWSAs 	0
scalar MyScenario.node[133].nic.phy80211p 	busyTime 	0.00048816326530612
scalar MyScenario.node[133].nic.mac1609_4 	ReceivedUnicastPackets 	0
scalar MyScenario.node[133].nic.mac1609_4 	ReceivedBroadcasts 	69
scalar MyScenario.node[133].nic.mac1609_4 	SentPackets 	15
scalar MyScenario.node[133].nic.mac1609_4 	SNIRLostPackets 	0
scalar MyScenario.node[133].nic.mac1609_4 	RXTXLostPackets 	0
scalar MyScenario.node[133].nic.mac1609_4 	TotalLostPackets 	0
scalar MyScenario.node[133].nic.mac1609_4 	DroppedPacketsInMac 	0
scalar MyScenario.node[133].nic.mac1609_4 	TooLittleTime 	0
scalar MyScenario.node[133].nic.mac1609_4 	TimesIntoBackoff 	15
scalar MyScenario.node[133].nic.mac1609_4 	SlotsBackoff 	31
scalar MyScenario.node[133].nic.mac1609_4 	NumInternalContention 	0
scalar MyScenario.node[133].nic.mac1609_4 	totalBusyTime 	0.008751
scalar MyScenario.node[133].veinsmobility 	startTime 	25200
scalar MyScenario.node[133].veinsmobility 	totalTime 	14.6
scalar MyScenario.node[133].veinsmobility 	stopTime 	25214.7
scalar MyScenario.node[133].veinsmobility 	minSpeed 	3.2322497175401
scalar MyScenario.node[133].veinsmobility 	maxSpeed 	14.776603745756
scalar MyScenario.node[133].veinsmobility 	totalDistance 	162.61730540516
scalar MyScenario.node[133].veinsmobility 	totalCO2Emission 	51.386175795769
scalar MyScenario.node[115].appl 	generatedWSMs 	0
scalar MyScenario.node[115].appl 	receivedWSMs 	0
scalar MyScenario.node[115].appl 	generatedBSMs 	15
scalar MyScenario.node[115].appl 	receivedBSMs 	159
scalar MyScenario.node[115].appl 	generatedWSAs 	0
scalar MyScenario.node[115].appl 	receivedWSAs 	0
scalar MyScenario.node[115].nic.phy80211p 	busyTime 	0.0010950993377483
scalar MyScenario.node[115].nic.mac1609_4 	ReceivedUnicastPackets 	0
scalar MyScenario.node[115].nic.mac1609_4 	ReceivedBroadcasts 	159
scalar MyScenario.node[115].nic.mac1609_4 	SentPackets 	15
scalar MyScenario.node[115].nic.mac1609_4 	SNIRLostPackets 	0
scalar MyScenario.node[115].nic.mac1609_4 	RXTXLostPackets 	0
scalar MyScenario.node[115].nic.mac1609_4 	TotalLostPackets 	0
scalar MyScenario.node[115].nic.mac1609_4 	DroppedPacketsInMac 	0
scalar MyScenario.node[115].nic.mac1609_4 	TooLittleTime 	0
scalar MyScenario.node[115].nic.mac1609_4 	TimesIntoBackoff 	15
scalar MyScenario.node[115].nic.mac1609_4 	SlotsBackoff 	19
scalar MyScenario.node[115].nic.mac1609_4 	NumInternalContention 	0
scalar MyScenario.node[115].nic.mac1609_4 	totalBusyTime 	0.018111
scalar MyScenario.node[115].veinsmobility 	startTime 	25200
scalar MyScenario.node[115].veinsmobility 	totalTime 	15
scalar MyScenario.node[115].veinsmobility 	stopTime 	25215.1
scalar MyScenario.node[115].veinsmobility 	minSpeed 	4.6402729554709e-14
scalar MyScenario.node[115].veinsmobility 	maxSpeed 	13.98891269909
scalar MyScenario.node[115].veinsmobility 	totalDistance 	115.9774299558
scalar MyScenario.node[115].veinsmobility 	totalCO2Emission 	50.612424016312
scalar MyScenario.node[76].appl 	generatedWSMs 	0
scalar MyScenario.node[76].appl 	receivedWSMs 	0
scalar MyScenario.node[76].appl 	generatedBSMs 	16
scalar MyScenario.node[76].appl 	receivedBSMs 	341
scalar MyScenario.node[76].appl 	generatedWSAs 	0
scalar MyScenario.node[76].appl 	receivedWSAs 	0
scalar MyScenario.node[76].nic.phy80211p 	busyTime 	0.00228
scalar MyScenario.node[76].nic.mac1609_4 	ReceivedUnicastPackets 	0
scalar MyScenario.node[76].nic.mac1609_4 	ReceivedBroadcasts 	341
scalar MyScenario.node[76].nic.mac1609_4 	SentPackets 	16
scalar MyScenario.node[76].nic.mac1609_4 	SNIRLostPackets 	1
scalar MyScenario.node[76].nic.mac1609_4 	RXTXLostPackets 	0
scalar MyScenario.node[76].nic.mac1609_4 	TotalLostPackets 	1
scalar MyScenario.node[76].nic.mac1609_4 	DroppedPacketsInMac 	0
scalar MyScenario.node[76].nic.mac1609_4 	TooLittleTime 	0
scalar MyScenario.node[76].nic.mac1609_4 	TimesIntoBackoff 	16
scalar MyScenario.node[76].nic.mac1609_4 	SlotsBackoff 	27
scalar MyScenario.node[76].nic.mac1609_4 	NumInternalContention 	0
scalar MyScenario.node[76].nic.mac1609_4 	totalBusyTime 	0.037248
scalar MyScenario.node[76].veinsmobility 	startTime 	25200
scalar MyScenario.node[76].veinsmobility 	totalTime 	15.5
scalar MyScenario.node[76].veinsmobility 	stopTime 	25215.6
scalar MyScenario.node[76].veinsmobility 	minSpeed 	3.4800997136877
scalar MyScenario.node[76].veinsmobility 	maxSpeed 	16.882069741752
scalar MyScenario.node[76].veinsmobility 	totalDistance 	166.0558387007
scalar MyScenario.node[76].veinsmobility 	totalCO2Emission 	59.852045386081
scalar MyScenario.node[15].appl 	generatedWSMs 	0
scalar MyScenario.node[15].appl 	receivedWSMs 	0
scalar MyScenario.node[15].appl 	generatedBSMs 	16
scalar MyScenario.node[15].appl 	receivedBSMs 	415
scalar MyScenario.node[15].appl 	generatedWSAs 	0
scalar MyScenario.node[15].appl 	receivedWSAs 	0
scalar MyScenario.node[15].nic.phy80211p 	busyTime 	0.002743
scalar MyScenario.node[15].nic.mac1609_4 	ReceivedUnicastPackets 	0
scalar MyScenario.node[15].nic.mac1609_4 	ReceivedBroadcasts 	415
scalar MyScenario.node[15].nic.mac1609_4 	SentPackets 	16
scalar MyScenario.node[15].nic.mac1609_4 	SNIRLostPackets 	7
scalar MyScenario.node[15].nic.mac1609_4 	RXTXLostPackets 	0
scalar MyScenario.node[15].nic.mac1609_4 	TotalLostPackets 	7
scalar MyScenario.node[15].nic.mac1609_4 	DroppedPacketsInMac 	0
scalar MyScenario.node[15].nic.mac1609_4 	TooLittleTime 	0
scalar MyScenario.node[15].nic.mac1609_4 	TimesIntoBackoff 	16
scalar MyScenario.node[15].nic.mac1609_4 	SlotsBackoff 	17
scalar MyScenario.node[15].nic.mac1609_4 	NumInternalContention 	0
scalar MyScenario.node[15].nic.mac1609_4 	totalBusyTime 	0.04536
scalar MyScenario.node[15].veinsmobility 	startTime 	25200
scalar MyScenario.node[15].veinsmobility 	totalTime 	15.9
scalar MyScenario.node[15].veinsmobility 	stopTime 	25216
scalar MyScenario.node[15].veinsmobility 	minSpeed 	31.204813892996
scalar MyScenario.node[15].veinsmobility 	maxSpeed 	33.32873786405
scalar MyScenario.node[15].veinsmobility 	totalDistance 	507.86212771794
scalar MyScenario.node[15].veinsmobility 	totalCO2Emission 	93.791978725575
scalar MyScenario.node[145].appl 	generatedWSMs 	0
scalar MyScenario.node[145].appl 	receivedWSMs 	0
scalar MyScenario.node[145].appl 	generatedBSMs 	17
scalar MyScenario.node[145].appl 	receivedBSMs 	360
scalar MyScenario.node[145].appl 	generatedWSAs 	0
scalar MyScenario.node[145].appl 	receivedWSAs 	0
scalar MyScenario.node[145].nic.phy80211p 	busyTime 	0.0022481437125748
scalar MyScenario.node[145].nic.mac1609_4 	ReceivedUnicastPackets 	0
scalar MyScenario.node[145].nic.mac1609_4 	ReceivedBroadcasts 	360
scalar MyScenario.node[145].nic.mac1609_4 	SentPackets 	17
scalar MyScenario.node[145].nic.mac1609_4 	SNIRLostPackets 	1
scalar MyScenario.node[145].nic.mac1609_4 	RXTXLostPackets 	0
scalar MyScenario.node[145].nic.mac1609_4 	TotalLostPackets 	1
scalar MyScenario.node[145].nic.mac1609_4 	DroppedPacketsInMac 	0
scalar MyScenario.node[145].nic.mac1609_4 	TooLittleTime 	0
scalar MyScenario.node[145].nic.mac1609_4 	TimesIntoBackoff 	17
scalar MyScenario.node[145].nic.mac1609_4 	SlotsBackoff 	24
scalar MyScenario.node[145].nic.mac1609_4 	NumInternalContention 	0
scalar MyScenario.node[145].nic.mac1609_4 	totalBusyTime 	0.039329
scalar MyScenario.node[145].veinsmobility 	startTime 	25200
scalar MyScenario.node[145].veinsmobility 	totalTime 	16.6
[...]
scalar MyScenario.node[185].nic.mac1609_4 	SlotsBackoff 	150
scalar MyScenario.node[185].nic.mac1609_4 	NumInternalContention 	0
scalar MyScenario.node[185].nic.mac1609_4 	totalBusyTime 	0.1327
scalar MyScenario.node[185].veinsmobility 	startTime 	25200
scalar MyScenario.node[185].veinsmobility 	totalTime 	100
scalar MyScenario.node[185].veinsmobility 	stopTime 	25300
scalar MyScenario.node[185].veinsmobility 	minSpeed 	0
scalar MyScenario.node[185].veinsmobility 	maxSpeed 	11.378359449499
scalar MyScenario.node[185].veinsmobility 	totalDistance 	855.18559638913
scalar MyScenario.node[185].veinsmobility 	totalCO2Emission 	204.19382614067
scalar MyScenario.node[314].appl 	generatedWSMs 	0
scalar MyScenario.node[314].appl 	receivedWSMs 	0
scalar MyScenario.node[314].appl 	generatedBSMs 	59
scalar MyScenario.node[314].appl 	receivedBSMs 	434
scalar MyScenario.node[314].appl 	generatedWSAs 	0
scalar MyScenario.node[314].appl 	receivedWSAs 	0
scalar MyScenario.node[314].nic.phy80211p 	busyTime 	0.00076631578947368
scalar MyScenario.node[314].nic.mac1609_4 	ReceivedUnicastPackets 	0
scalar MyScenario.node[314].nic.mac1609_4 	ReceivedBroadcasts 	434
scalar MyScenario.node[314].nic.mac1609_4 	SentPackets 	59
scalar MyScenario.node[314].nic.mac1609_4 	SNIRLostPackets 	0
scalar MyScenario.node[314].nic.mac1609_4 	RXTXLostPackets 	0
scalar MyScenario.node[314].nic.mac1609_4 	TotalLostPackets 	0
scalar MyScenario.node[314].nic.mac1609_4 	DroppedPacketsInMac 	0
scalar MyScenario.node[314].nic.mac1609_4 	TooLittleTime 	0
scalar MyScenario.node[314].nic.mac1609_4 	TimesIntoBackoff 	59
scalar MyScenario.node[314].nic.mac1609_4 	SlotsBackoff 	88
scalar MyScenario.node[314].nic.mac1609_4 	NumInternalContention 	0
scalar MyScenario.node[314].nic.mac1609_4 	totalBusyTime 	0.051331
scalar MyScenario.node[314].veinsmobility 	startTime 	25241.1
scalar MyScenario.node[314].veinsmobility 	totalTime 	58.9
scalar MyScenario.node[314].veinsmobility 	stopTime 	25300
scalar MyScenario.node[314].veinsmobility 	minSpeed 	0.26687313266611
scalar MyScenario.node[314].veinsmobility 	maxSpeed 	13.941486944189
scalar MyScenario.node[314].veinsmobility 	totalDistance 	730.32397977739
scalar MyScenario.node[314].veinsmobility 	totalCO2Emission 	171.64489198104
scalar MyScenario.node[428].appl 	generatedWSMs 	0
scalar MyScenario.node[428].appl 	receivedWSMs 	0
scalar MyScenario.node[428].appl 	generatedBSMs 	14
scalar MyScenario.node[428].appl 	receivedBSMs 	46
scalar MyScenario.node[428].appl 	generatedWSAs 	0
scalar MyScenario.node[428].appl 	receivedWSAs 	0
scalar MyScenario.node[428].nic.phy80211p 	busyTime 	0.0003441726618705
scalar MyScenario.node[428].nic.mac1609_4 	ReceivedUnicastPackets 	0
scalar MyScenario.node[428].nic.mac1609_4 	ReceivedBroadcasts 	46
scalar MyScenario.node[428].nic.mac1609_4 	SentPackets 	14
scalar MyScenario.node[428].nic.mac1609_4 	SNIRLostPackets 	0
scalar MyScenario.node[428].nic.mac1609_4 	RXTXLostPackets 	0
scalar MyScenario.node[428].nic.mac1609_4 	TotalLostPackets 	0
scalar MyScenario.node[428].nic.mac1609_4 	DroppedPacketsInMac 	0
scalar MyScenario.node[428].nic.mac1609_4 	TooLittleTime 	0
scalar MyScenario.node[428].nic.mac1609_4 	TimesIntoBackoff 	14
scalar MyScenario.node[428].nic.mac1609_4 	SlotsBackoff 	18
scalar MyScenario.node[428].nic.mac1609_4 	NumInternalContention 	0
scalar MyScenario.node[428].nic.mac1609_4 	totalBusyTime 	0.006254
scalar MyScenario.node[428].veinsmobility 	startTime 	25286.1
scalar MyScenario.node[428].veinsmobility 	totalTime 	13.9
scalar MyScenario.node[428].veinsmobility 	stopTime 	25300
scalar MyScenario.node[428].veinsmobility 	minSpeed 	0.29198248891043
scalar MyScenario.node[428].veinsmobility 	maxSpeed 	13.395670800524
scalar MyScenario.node[428].veinsmobility 	totalDistance 	146.71952817796
scalar MyScenario.node[428].veinsmobility 	totalCO2Emission 	48.924903371408
scalar MyScenario.node[274].appl 	generatedWSMs 	0
scalar MyScenario.node[274].appl 	receivedWSMs 	0
scalar MyScenario.node[274].appl 	generatedBSMs 	73
scalar MyScenario.node[274].appl 	receivedBSMs 	467
scalar MyScenario.node[274].appl 	generatedWSAs 	0
scalar MyScenario.node[274].appl 	receivedWSAs 	0
scalar MyScenario.node[274].nic.phy80211p 	busyTime 	0.00066622770919067
scalar MyScenario.node[274].nic.mac1609_4 	ReceivedUnicastPackets 	0
scalar MyScenario.node[274].nic.mac1609_4 	ReceivedBroadcasts 	467
scalar MyScenario.node[274].nic.mac1609_4 	SentPackets 	73
scalar MyScenario.node[274].nic.mac1609_4 	SNIRLostPackets 	0
scalar MyScenario.node[274].nic.mac1609_4 	RXTXLostPackets 	0
scalar MyScenario.node[274].nic.mac1609_4 	TotalLostPackets 	0
scalar MyScenario.node[274].nic.mac1609_4 	DroppedPacketsInMac 	0
scalar MyScenario.node[274].nic.mac1609_4 	TooLittleTime 	0
scalar MyScenario.node[274].nic.mac1609_4 	TimesIntoBackoff 	73
scalar MyScenario.node[274].nic.mac1609_4 	SlotsBackoff 	119
scalar MyScenario.node[274].nic.mac1609_4 	NumInternalContention 	0
scalar MyScenario.node[274].nic.mac1609_4 	totalBusyTime 	0.056233
scalar MyScenario.node[274].veinsmobility 	startTime 	25227.1
scalar MyScenario.node[274].veinsmobility 	totalTime 	72.9
scalar MyScenario.node[274].veinsmobility 	stopTime 	25300
scalar MyScenario.node[274].veinsmobility 	minSpeed 	0.29451714332798
scalar MyScenario.node[274].veinsmobility 	maxSpeed 	14.260182763454
scalar MyScenario.node[274].veinsmobility 	totalDistance 	807.21448501111
scalar MyScenario.node[274].veinsmobility 	totalCO2Emission 	243.35882137275
scalar MyScenario.node[266].appl 	generatedWSMs 	0
scalar MyScenario.node[266].appl 	receivedWSMs 	0
scalar MyScenario.node[266].appl 	generatedBSMs 	74
scalar MyScenario.node[266].appl 	receivedBSMs 	484
scalar MyScenario.node[266].appl 	generatedWSAs 	0
scalar MyScenario.node[266].appl 	receivedWSAs 	0
scalar MyScenario.node[266].nic.phy80211p 	busyTime 	0.00068113667117727
scalar MyScenario.node[266].nic.mac1609_4 	ReceivedUnicastPackets 	0
scalar MyScenario.node[266].nic.mac1609_4 	ReceivedBroadcasts 	484
scalar MyScenario.node[266].nic.mac1609_4 	SentPackets 	74
scalar MyScenario.node[266].nic.mac1609_4 	SNIRLostPackets 	0
scalar MyScenario.node[266].nic.mac1609_4 	RXTXLostPackets 	0
scalar MyScenario.node[266].nic.mac1609_4 	TotalLostPackets 	0
scalar MyScenario.node[266].nic.mac1609_4 	DroppedPacketsInMac 	0
scalar MyScenario.node[266].nic.mac1609_4 	TooLittleTime 	0
scalar MyScenario.node[266].nic.mac1609_4 	TimesIntoBackoff 	74
scalar MyScenario.node[266].nic.mac1609_4 	SlotsBackoff 	120
scalar MyScenario.node[266].nic.mac1609_4 	NumInternalContention 	0
scalar MyScenario.node[266].nic.mac1609_4 	totalBusyTime 	0.058106
scalar MyScenario.node[266].veinsmobility 	startTime 	25226.1
scalar MyScenario.node[266].veinsmobility 	totalTime 	73.9
scalar MyScenario.node[266].veinsmobility 	stopTime 	25300
scalar MyScenario.node[266].veinsmobility 	minSpeed 	0.26627476260765
scalar MyScenario.node[266].veinsmobility 	maxSpeed 	16.083306063432
scalar MyScenario.node[266].veinsmobility 	totalDistance 	890.11123558278
scalar MyScenario.node[266].veinsmobility 	totalCO2Emission 	274.24404717607
scalar MyScenario.node[187].appl 	generatedWSMs 	0
scalar MyScenario.node[187].appl 	receivedWSMs 	0
scalar MyScenario.node[187].appl 	generatedBSMs 	100
scalar MyScenario.node[187].appl 	receivedBSMs 	2485
scalar MyScenario.node[187].appl 	generatedWSAs 	0
scalar MyScenario.node[187].appl 	receivedWSAs 	0
scalar MyScenario.node[187].nic.phy80211p 	busyTime 	0.0025844
scalar MyScenario.node[187].nic.mac1609_4 	ReceivedUnicastPackets 	0
scalar MyScenario.node[187].nic.mac1609_4 	ReceivedBroadcasts 	2485
scalar MyScenario.node[187].nic.mac1609_4 	SentPackets 	100
scalar MyScenario.node[187].nic.mac1609_4 	SNIRLostPackets 	0
scalar MyScenario.node[187].nic.mac1609_4 	RXTXLostPackets 	0
scalar MyScenario.node[187].nic.mac1609_4 	TotalLostPackets 	0
scalar MyScenario.node[187].nic.mac1609_4 	DroppedPacketsInMac 	0
scalar MyScenario.node[187].nic.mac1609_4 	TooLittleTime 	0
scalar MyScenario.node[187].nic.mac1609_4 	TimesIntoBackoff 	100
scalar MyScenario.node[187].nic.mac1609_4 	SlotsBackoff 	141
scalar MyScenario.node[187].nic.mac1609_4 	NumInternalContention 	0
scalar MyScenario.node[187].nic.mac1609_4 	totalBusyTime 	0.26894
scalar MyScenario.node[187].veinsmobility 	startTime 	25200
scalar MyScenario.node[187].veinsmobility 	totalTime 	100
scalar MyScenario.node[187].veinsmobility 	stopTime 	25300
scalar MyScenario.node[187].veinsmobility 	minSpeed 	4.5363626819982e-14
scalar MyScenario.node[187].veinsmobility 	maxSpeed 	12.848683261376
scalar MyScenario.node[187].veinsmobility 	totalDistance 	393.78378139042
scalar MyScenario.node[187].veinsmobility 	totalCO2Emission 	180.21971788462
scalar MyScenario.node[446].appl 	generatedWSMs 	0
scalar MyScenario.node[446].appl 	receivedWSMs 	0
scalar MyScenario.node[446].appl 	generatedBSMs 	9
scalar MyScenario.node[446].appl 	receivedBSMs 	180
scalar MyScenario.node[446].appl 	generatedWSAs 	0
scalar MyScenario.node[446].appl 	receivedWSAs 	0
scalar MyScenario.node[446].nic.phy80211p 	busyTime 	0.002057142857142
scalar MyScenario.node[446].nic.mac1609_4 	ReceivedUnicastPackets 	0
scalar MyScenario.node[446].nic.mac1609_4 	ReceivedBroadcasts 	180
scalar MyScenario.node[446].nic.mac1609_4 	SentPackets 	9
scalar MyScenario.node[446].nic.mac1609_4 	SNIRLostPackets 	0
scalar MyScenario.node[446].nic.mac1609_4 	RXTXLostPackets 	0
scalar MyScenario.node[446].nic.mac1609_4 	TotalLostPackets 	0
scalar MyScenario.node[446].nic.mac1609_4 	DroppedPacketsInMac 	0
scalar MyScenario.node[446].nic.mac1609_4 	TooLittleTime 	0
scalar MyScenario.node[446].nic.mac1609_4 	TimesIntoBackoff 	9
scalar MyScenario.node[446].nic.mac1609_4 	SlotsBackoff 	10
scalar MyScenario.node[446].nic.mac1609_4 	NumInternalContention 	0
scalar MyScenario.node[446].nic.mac1609_4 	totalBusyTime 	0.019665
scalar MyScenario.node[446].veinsmobility 	startTime 	25290.9
scalar MyScenario.node[446].veinsmobility 	totalTime 	9.1
scalar MyScenario.node[446].veinsmobility 	stopTime 	25300
scalar MyScenario.node[446].veinsmobility 	minSpeed 	7.2002608064171
scalar MyScenario.node[446].veinsmobility 	maxSpeed 	13.64826494377
scalar MyScenario.node[446].veinsmobility 	totalDistance 	107.59156698758
scalar MyScenario.node[446].veinsmobility 	totalCO2Emission 	35.225037506736
scalar MyScenario.node[190].appl 	generatedWSMs 	0
scalar MyScenario.node[190].appl 	receivedWSMs 	0
scalar MyScenario.node[190].appl 	generatedBSMs 	100
scalar MyScenario.node[190].appl 	receivedBSMs 	1733
scalar MyScenario.node[190].appl 	generatedWSAs 	0
scalar MyScenario.node[190].appl 	receivedWSAs 	0
scalar MyScenario.node[190].nic.phy80211p 	busyTime 	0.00180648
scalar MyScenario.node[190].nic.mac1609_4 	ReceivedUnicastPackets 	0
scalar MyScenario.node[190].nic.mac1609_4 	ReceivedBroadcasts 	1733
scalar MyScenario.node[190].nic.mac1609_4 	SentPackets 	100
scalar MyScenario.node[190].nic.mac1609_4 	SNIRLostPackets 	4
scalar MyScenario.node[190].nic.mac1609_4 	RXTXLostPackets 	0
scalar MyScenario.node[190].nic.mac1609_4 	TotalLostPackets 	4
scalar MyScenario.node[190].nic.mac1609_4 	DroppedPacketsInMac 	0
scalar MyScenario.node[190].nic.mac1609_4 	TooLittleTime 	0
scalar MyScenario.node[190].nic.mac1609_4 	TimesIntoBackoff 	100
scalar MyScenario.node[190].nic.mac1609_4 	SlotsBackoff 	156
scalar MyScenario.node[190].nic.mac1609_4 	NumInternalContention 	0
scalar MyScenario.node[190].nic.mac1609_4 	totalBusyTime 	0.19094
scalar MyScenario.node[190].veinsmobility 	startTime 	25200
scalar MyScenario.node[190].veinsmobility 	totalTime 	100
scalar MyScenario.node[190].veinsmobility 	stopTime 	25300
scalar MyScenario.node[190].veinsmobility 	minSpeed 	0
scalar MyScenario.node[190].veinsmobility 	maxSpeed 	10.788790084894
scalar MyScenario.node[190].veinsmobility 	totalDistance 	656.50106537298
scalar MyScenario.node[190].veinsmobility 	totalCO2Emission 	186.15743961432
scalar MyScenario.node[191].appl 	generatedWSMs 	0
scalar MyScenario.node[191].appl 	receivedWSMs 	0
scalar MyScenario.node[191].appl 	generatedBSMs 	100
scalar MyScenario.node[191].appl 	receivedBSMs 	2334
scalar MyScenario.node[191].appl 	generatedWSAs 	0
scalar MyScenario.node[191].appl 	receivedWSAs 	0
scalar MyScenario.node[191].nic.phy80211p 	busyTime 	0.0024388
scalar MyScenario.node[191].nic.mac1609_4 	ReceivedUnicastPackets 	0
scalar MyScenario.node[191].nic.mac1609_4 	ReceivedBroadcasts 	2334
scalar MyScenario.node[191].nic.mac1609_4 	SentPackets 	100
scalar MyScenario.node[191].nic.mac1609_4 	SNIRLostPackets 	11
scalar MyScenario.node[191].nic.mac1609_4 	RXTXLostPackets 	0
scalar MyScenario.node[191].nic.mac1609_4 	TotalLostPackets 	11
scalar MyScenario.node[191].nic.mac1609_4 	DroppedPacketsInMac 	0
scalar MyScenario.node[191].nic.mac1609_4 	TooLittleTime 	0
scalar MyScenario.node[191].nic.mac1609_4 	TimesIntoBackoff 	100
scalar MyScenario.node[191].nic.mac1609_4 	SlotsBackoff 	141
scalar MyScenario.node[191].nic.mac1609_4 	NumInternalContention 	0
scalar MyScenario.node[191].nic.mac1609_4 	totalBusyTime 	0.25386
scalar MyScenario.node[191].veinsmobility 	startTime 	25200
scalar MyScenario.node[191].veinsmobility 	totalTime 	100
scalar MyScenario.node[191].veinsmobility 	stopTime 	25300
scalar MyScenario.node[191].veinsmobility 	minSpeed 	4.5372774741013e-14
scalar MyScenario.node[191].veinsmobility 	maxSpeed 	14.917825204043
scalar MyScenario.node[191].veinsmobility 	totalDistance 	751.84647405134
scalar MyScenario.node[191].veinsmobility 	totalCO2Emission 	223.67910435381
scalar MyScenario.node[376].appl 	generatedWSMs 	0
scalar MyScenario.node[376].appl 	receivedWSMs 	0
scalar MyScenario.node[376].appl 	generatedBSMs 	33
scalar MyScenario.node[376].appl 	receivedBSMs 	1209
scalar MyScenario.node[376].appl 	generatedWSAs 	0
scalar MyScenario.node[376].appl 	receivedWSAs 	0
scalar MyScenario.node[376].nic.phy80211p 	busyTime 	0.0037872289156628
scalar MyScenario.node[376].nic.mac1609_4 	ReceivedUnicastPackets 	0
scalar MyScenario.node[376].nic.mac1609_4 	ReceivedBroadcasts 	1209
scalar MyScenario.node[376].nic.mac1609_4 	SentPackets 	33
scalar MyScenario.node[376].nic.mac1609_4 	SNIRLostPackets 	0
scalar MyScenario.node[376].nic.mac1609_4 	RXTXLostPackets 	0
scalar MyScenario.node[376].nic.mac1609_4 	TotalLostPackets 	0
scalar MyScenario.node[376].nic.mac1609_4 	DroppedPacketsInMac 	0
scalar MyScenario.node[376].nic.mac1609_4 	TooLittleTime 	0
scalar MyScenario.node[376].nic.mac1609_4 	TimesIntoBackoff 	33
scalar MyScenario.node[376].nic.mac1609_4 	SlotsBackoff 	59
scalar MyScenario.node[376].nic.mac1609_4 	NumInternalContention 	0
scalar MyScenario.node[376].nic.mac1609_4 	totalBusyTime 	0.129201
scalar MyScenario.node[376].veinsmobility 	startTime 	25266.8
scalar MyScenario.node[376].veinsmobility 	totalTime 	33.2
scalar MyScenario.node[376].veinsmobility 	stopTime 	25300
scalar MyScenario.node[376].veinsmobility 	minSpeed 	12.712016451006
scalar MyScenario.node[376].veinsmobility 	maxSpeed 	14.752685109673
scalar MyScenario.node[376].veinsmobility 	totalDistance 	434.38444920415
scalar MyScenario.node[376].veinsmobility 	totalCO2Emission 	79.136508706214
scalar MyScenario.node[221].appl 	generatedWSMs 	0
scalar MyScenario.node[221].appl 	receivedWSMs 	0
scalar MyScenario.node[221].appl 	generatedBSMs 	91
scalar MyScenario.node[221].appl 	receivedBSMs 	2800
scalar MyScenario.node[221].appl 	generatedWSAs 	0
scalar MyScenario.node[221].appl 	receivedWSAs 	0
scalar MyScenario.node[221].nic.phy80211p 	busyTime 	0.003217679558011
scalar MyScenario.node[221].nic.mac1609_4 	ReceivedUnicastPackets 	0
scalar MyScenario.node[221].nic.mac1609_4 	ReceivedBroadcasts 	2800
scalar MyScenario.node[221].nic.mac1609_4 	SentPackets 	91
scalar MyScenario.node[221].nic.mac1609_4 	SNIRLostPackets 	0
scalar MyScenario.node[221].nic.mac1609_4 	RXTXLostPackets 	0
scalar MyScenario.node[221].nic.mac1609_4 	TotalLostPackets 	0
scalar MyScenario.node[221].nic.mac1609_4 	DroppedPacketsInMac 	0
scalar MyScenario.node[221].nic.mac1609_4 	TooLittleTime 	0
scalar MyScenario.node[221].nic.mac1609_4 	TimesIntoBackoff 	91
scalar MyScenario.node[221].nic.mac1609_4 	SlotsBackoff 	139
scalar MyScenario.node[221].nic.mac1609_4 	NumInternalContention 	0
scalar MyScenario.node[221].nic.mac1609_4 	totalBusyTime 	0.300755
scalar MyScenario.node[221].veinsmobility 	startTime 	25209.5
scalar MyScenario.node[221].veinsmobility 	totalTime 	90.5
scalar MyScenario.node[221].veinsmobility 	stopTime 	25300
scalar MyScenario.node[221].veinsmobility 	minSpeed 	4.5374666655577e-14
scalar MyScenario.node[221].veinsmobility 	maxSpeed 	16.351896311169
scalar MyScenario.node[221].veinsmobility 	totalDistance 	585.03068454644
scalar MyScenario.node[221].veinsmobility 	totalCO2Emission 	194.54732217643
scalar MyScenario.node[434].appl 	generatedWSMs 	0
scalar MyScenario.node[434].appl 	receivedWSMs 	0
scalar MyScenario.node[434].appl 	generatedBSMs 	13
scalar MyScenario.node[434].appl 	receivedBSMs 	143
scalar MyScenario.node[434].appl 	generatedWSAs 	0
scalar MyScenario.node[434].appl 	receivedWSAs 	0
scalar MyScenario.node[434].nic.phy80211p 	busyTime 	0.0011710236220472
scalar MyScenario.node[434].nic.mac1609_4 	ReceivedUnicastPackets 	0
scalar MyScenario.node[434].nic.mac1609_4 	ReceivedBroadcasts 	143
scalar MyScenario.node[434].nic.mac1609_4 	SentPackets 	13
scalar MyScenario.node[434].nic.mac1609_4 	SNIRLostPackets 	0
scalar MyScenario.node[434].nic.mac1609_4 	RXTXLostPackets 	0
scalar MyScenario.node[434].nic.mac1609_4 	TotalLostPackets 	0
scalar MyScenario.node[434].nic.mac1609_4 	DroppedPacketsInMac 	0
scalar MyScenario.node[434].nic.mac1609_4 	TooLittleTime 	0
scalar MyScenario.node[434].nic.mac1609_4 	TimesIntoBackoff 	13
scalar MyScenario.node[434].nic.mac1609_4 	SlotsBackoff 	13
scalar MyScenario.node[434].nic.mac1609_4 	NumInternalContention 	0
scalar MyScenario.node[434].nic.mac1609_4 	totalBusyTime 	0.016237
scalar MyScenario.node[434].veinsmobility 	startTime 	25287.3
scalar MyScenario.node[434].veinsmobility 	totalTime 	12.7
scalar MyScenario.node[434].veinsmobility 	stopTime 	25300
scalar MyScenario.node[434].veinsmobility 	minSpeed 	8.4713527589062
scalar MyScenario.node[434].veinsmobility 	maxSpeed 	16.819555052863
scalar MyScenario.node[434].veinsmobility 	totalDistance 	202.66933461009
scalar MyScenario.node[434].veinsmobility 	totalCO2Emission 	29.991568348839
scalar MyScenario.node[492].appl 	generatedWSMs 	0
scalar MyScenario.node[492].appl 	receivedWSMs 	0
scalar MyScenario.node[492].appl 	generatedBSMs 	1
scalar MyScenario.node[492].appl 	receivedBSMs 	3
scalar MyScenario.node[492].appl 	generatedWSAs 	0
scalar MyScenario.node[492].appl 	receivedWSAs 	0
scalar MyScenario.node[492].nic.phy80211p 	busyTime 	0.00104
scalar MyScenario.node[492].nic.mac1609_4 	ReceivedUnicastPackets 	0
scalar MyScenario.node[492].nic.mac1609_4 	ReceivedBroadcasts 	3
scalar MyScenario.node[492].nic.mac1609_4 	SentPackets 	1
scalar MyScenario.node[492].nic.mac1609_4 	SNIRLostPackets 	0
scalar MyScenario.node[492].nic.mac1609_4 	RXTXLostPackets 	0
scalar MyScenario.node[492].nic.mac1609_4 	TotalLostPackets 	0
scalar MyScenario.node[492].nic.mac1609_4 	DroppedPacketsInMac 	0
scalar MyScenario.node[492].nic.mac1609_4 	TooLittleTime 	0
scalar MyScenario.node[492].nic.mac1609_4 	TimesIntoBackoff 	1
scalar MyScenario.node[492].nic.mac1609_4 	SlotsBackoff 	3
scalar MyScenario.node[492].nic.mac1609_4 	NumInternalContention 	0
scalar MyScenario.node[492].nic.mac1609_4 	totalBusyTime 	0.000417
scalar MyScenario.node[492].veinsmobility 	startTime 	25299.7
scalar MyScenario.node[492].veinsmobility 	totalTime 	0.3
scalar MyScenario.node[492].veinsmobility 	stopTime 	25300
scalar MyScenario.node[492].veinsmobility 	minSpeed 	15.770215525732
scalar MyScenario.node[492].veinsmobility 	maxSpeed 	15.890425618128
scalar MyScenario.node[492].veinsmobility 	totalDistance 	4.7557862158338
scalar MyScenario.node[492].veinsmobility 	totalCO2Emission 	0.76791112671239
