version 2
run AttackerType16-8-20180205-19:42:51-33606
attr configname AttackerType16
attr datetime 20180205-19:42:51
attr experiment AttackerType16
attr inifile omnetpp_8.ini
attr iterationvars "$start=3, $0=0.2"
attr iterationvarsf start=3,0.2-
attr measurement "$start=3, $0=0.2"
attr network MyScenario
attr processid 33606
attr repetition 3
attr replication #3
attr resultdir results
attr runnumber 8
attr seedset 3
attr start 3
param **.**.**.debug false
param **.**.nic.**.debug false
param **.coreDebug false
param **.debug false
param *.**.nic.mac1609_4.bitrate 6Mbps
param *.**.nic.mac1609_4.txPower 20mW
param *.**.nic.mac1609_4.useServiceChannel false
param *.**.nic.phy80211p.analogueModels "xmldoc(\"config.xml\")"
param *.**.nic.phy80211p.antenna "xmldoc(\"antenna.xml\", \"/root/Antenna[@id='monopole']\")"
param *.**.nic.phy80211p.decider "xmldoc(\"config.xml\")"
param *.**.nic.phy80211p.sensitivity -89dBm
param *.**.nic.phy80211p.thermalNoise -110dBm
param *.**.nic.phy80211p.usePropagationDelay true
param *.**.nic.phy80211p.useThermalNoise true
param *.**.veinsmobility.x 0
param *.**.veinsmobility.y 0
param *.**.veinsmobility.z 1.895
param *.**.veinsmobilityType.debug false
param *.annotations.draw false
param *.connectionManager.drawMaxIntfDist false
param *.connectionManager.maxInterfDist 2600m
param *.connectionManager.sendDirect true
param *.manager.autoShutdown true
param *.manager.configFile "\"dua.static.sumocfg\""
param *.manager.firstStepAt 3h
param *.manager.host "\"localhost\""
param *.manager.launchConfig "xmldoc(\"luxembourg.launchd.xml\")"
param *.manager.roiRects "\"2300,5400-6300,6300\""
param *.manager.seed 3
param *.manager.updateInterval 0.1s
param *.node[*].appl.attackerProbability 0.2
param *.node[*].appl.attackerType 16
param *.node[*].appl.beaconInterval 1s
param *.node[*].appl.dataOnSch false
param *.node[*].appl.headerLength "80 bit"
param *.node[*].appl.sendBeacons true
param *.node[*].appl.traceGroundTruthJSONFile "\"GroundTruthJSONlog\""
param *.node[*].appl.traceJSONFile "\"JSONlog-\""
param *.node[*].applType "\"AttackerApp\""
param *.obstacles.debug false
param *.obstacles.obstacles "xmldoc(\"config.xml\", \"//AnalogueModel[@type='SimpleObstacleShadowing']/obstacles\")"
param *.playgroundSizeX 13640m
param *.playgroundSizeY 11500m
param *.playgroundSizeZ 50m

scalar _runattrs_ 	start 	3
scalar MyScenario.node[10].appl 	generatedWSMs 	0
scalar MyScenario.node[10].appl 	receivedWSMs 	0
scalar MyScenario.node[10].appl 	generatedBSMs 	0
scalar MyScenario.node[10].appl 	receivedBSMs 	1
scalar MyScenario.node[10].appl 	generatedWSAs 	0
scalar MyScenario.node[10].appl 	receivedWSAs 	0
scalar MyScenario.node[10].nic.phy80211p 	busyTime 	0.000208
scalar MyScenario.node[10].nic.mac1609_4 	ReceivedUnicastPackets 	0
scalar MyScenario.node[10].nic.mac1609_4 	ReceivedBroadcasts 	1
scalar MyScenario.node[10].nic.mac1609_4 	SentPackets 	0
scalar MyScenario.node[10].nic.mac1609_4 	SNIRLostPackets 	0
scalar MyScenario.node[10].nic.mac1609_4 	RXTXLostPackets 	0
scalar MyScenario.node[10].nic.mac1609_4 	TotalLostPackets 	0
scalar MyScenario.node[10].nic.mac1609_4 	DroppedPacketsInMac 	0
scalar MyScenario.node[10].nic.mac1609_4 	TooLittleTime 	0
scalar MyScenario.node[10].nic.mac1609_4 	TimesIntoBackoff 	0
scalar MyScenario.node[10].nic.mac1609_4 	SlotsBackoff 	0
scalar MyScenario.node[10].nic.mac1609_4 	NumInternalContention 	0
scalar MyScenario.node[10].nic.mac1609_4 	totalBusyTime 	0.000104
scalar MyScenario.node[10].veinsmobility 	startTime 	10800
scalar MyScenario.node[10].veinsmobility 	totalTime 	0.4
scalar MyScenario.node[10].veinsmobility 	stopTime 	10800.5
scalar MyScenario.node[10].veinsmobility 	minSpeed 	40.577305127284
scalar MyScenario.node[10].veinsmobility 	maxSpeed 	40.677490366651
scalar MyScenario.node[10].veinsmobility 	totalDistance 	16.26734915044
scalar MyScenario.node[10].veinsmobility 	totalCO2Emission 	3.677730983849
scalar MyScenario.node[5].appl 	generatedWSMs 	0
scalar MyScenario.node[5].appl 	receivedWSMs 	0
scalar MyScenario.node[5].appl 	generatedBSMs 	5
scalar MyScenario.node[5].appl 	receivedBSMs 	25
scalar MyScenario.node[5].appl 	generatedWSAs 	0
scalar MyScenario.node[5].appl 	receivedWSAs 	0
scalar MyScenario.node[5].nic.phy80211p 	busyTime 	0.00057777777777778
scalar MyScenario.node[5].nic.mac1609_4 	ReceivedUnicastPackets 	0
scalar MyScenario.node[5].nic.mac1609_4 	ReceivedBroadcasts 	25
scalar MyScenario.node[5].nic.mac1609_4 	SentPackets 	5
scalar MyScenario.node[5].nic.mac1609_4 	SNIRLostPackets 	0
scalar MyScenario.node[5].nic.mac1609_4 	RXTXLostPackets 	0
scalar MyScenario.node[5].nic.mac1609_4 	TotalLostPackets 	0
scalar MyScenario.node[5].nic.mac1609_4 	DroppedPacketsInMac 	0
scalar MyScenario.node[5].nic.mac1609_4 	TooLittleTime 	0
scalar MyScenario.node[5].nic.mac1609_4 	TimesIntoBackoff 	5
scalar MyScenario.node[5].nic.mac1609_4 	SlotsBackoff 	5
scalar MyScenario.node[5].nic.mac1609_4 	NumInternalContention 	0
scalar MyScenario.node[5].nic.mac1609_4 	totalBusyTime 	0.003125
scalar MyScenario.node[5].veinsmobility 	startTime 	10800
scalar MyScenario.node[5].veinsmobility 	totalTime 	4.4
scalar MyScenario.node[5].veinsmobility 	stopTime 	10804.5
scalar MyScenario.node[5].veinsmobility 	minSpeed 	39.794335583676
scalar MyScenario.node[5].veinsmobility 	maxSpeed 	39.934758831162
scalar MyScenario.node[5].veinsmobility 	totalDistance 	175.15085528661
scalar MyScenario.node[5].veinsmobility 	totalCO2Emission 	38.196781258465
scalar MyScenario.node[6].appl 	generatedWSMs 	0
scalar MyScenario.node[6].appl 	receivedWSMs 	0
scalar MyScenario.node[6].appl 	generatedBSMs 	10
scalar MyScenario.node[6].appl 	receivedBSMs 	73
scalar MyScenario.node[6].appl 	generatedWSAs 	0
scalar MyScenario.node[6].appl 	receivedWSAs 	0
scalar MyScenario.node[6].nic.phy80211p 	busyTime 	0.0007443137254902
scalar MyScenario.node[6].nic.mac1609_4 	ReceivedUnicastPackets 	0
scalar MyScenario.node[6].nic.mac1609_4 	ReceivedBroadcasts 	73
scalar MyScenario.node[6].nic.mac1609_4 	SentPackets 	10
scalar MyScenario.node[6].nic.mac1609_4 	SNIRLostPackets 	0
scalar MyScenario.node[6].nic.mac1609_4 	RXTXLostPackets 	0
scalar MyScenario.node[6].nic.mac1609_4 	TotalLostPackets 	0
scalar MyScenario.node[6].nic.mac1609_4 	DroppedPacketsInMac 	0
scalar MyScenario.node[6].nic.mac1609_4 	TooLittleTime 	0
scalar MyScenario.node[6].nic.mac1609_4 	TimesIntoBackoff 	10
scalar MyScenario.node[6].nic.mac1609_4 	SlotsBackoff 	19
scalar MyScenario.node[6].nic.mac1609_4 	NumInternalContention 	0
scalar MyScenario.node[6].nic.mac1609_4 	totalBusyTime 	0.008642
scalar MyScenario.node[6].veinsmobility 	startTime 	10800
scalar MyScenario.node[6].veinsmobility 	totalTime 	10.1
scalar MyScenario.node[6].veinsmobility 	stopTime 	10810.2
scalar MyScenario.node[6].veinsmobility 	minSpeed 	39.797638927511
scalar MyScenario.node[6].veinsmobility 	maxSpeed 	39.924014475698
scalar MyScenario.node[6].veinsmobility 	totalDistance 	402.1528442819
scalar MyScenario.node[6].veinsmobility 	totalCO2Emission 	89.570440154195
scalar MyScenario.node[2].appl 	generatedWSMs 	0
scalar MyScenario.node[2].appl 	receivedWSMs 	0
scalar MyScenario.node[2].appl 	generatedBSMs 	16
scalar MyScenario.node[2].appl 	receivedBSMs 	114
scalar MyScenario.node[2].appl 	generatedWSAs 	0
scalar MyScenario.node[2].appl 	receivedWSAs 	0
scalar MyScenario.node[2].nic.phy80211p 	busyTime 	0.00072292682926829
scalar MyScenario.node[2].nic.mac1609_4 	ReceivedUnicastPackets 	0
scalar MyScenario.node[2].nic.mac1609_4 	ReceivedBroadcasts 	114
scalar MyScenario.node[2].nic.mac1609_4 	SentPackets 	16
scalar MyScenario.node[2].nic.mac1609_4 	SNIRLostPackets 	0
scalar MyScenario.node[2].nic.mac1609_4 	RXTXLostPackets 	0
scalar MyScenario.node[2].nic.mac1609_4 	TotalLostPackets 	0
scalar MyScenario.node[2].nic.mac1609_4 	DroppedPacketsInMac 	0
scalar MyScenario.node[2].nic.mac1609_4 	TooLittleTime 	0
scalar MyScenario.node[2].nic.mac1609_4 	TimesIntoBackoff 	16
scalar MyScenario.node[2].nic.mac1609_4 	SlotsBackoff 	14
scalar MyScenario.node[2].nic.mac1609_4 	NumInternalContention 	0
scalar MyScenario.node[2].nic.mac1609_4 	totalBusyTime 	0.013536
scalar MyScenario.node[2].veinsmobility 	startTime 	10800
scalar MyScenario.node[2].veinsmobility 	totalTime 	16.3
scalar MyScenario.node[2].veinsmobility 	stopTime 	10816.4
scalar MyScenario.node[2].veinsmobility 	minSpeed 	32.786227873069
scalar MyScenario.node[2].veinsmobility 	maxSpeed 	32.919931709529
scalar MyScenario.node[2].veinsmobility 	totalDistance 	536.05990393827
scalar MyScenario.node[2].veinsmobility 	totalCO2Emission 	99.730869737669
scalar MyScenario.node[1].appl 	generatedWSMs 	0
scalar MyScenario.node[1].appl 	receivedWSMs 	0
scalar MyScenario.node[1].appl 	generatedBSMs 	17
scalar MyScenario.node[1].appl 	receivedBSMs 	91
scalar MyScenario.node[1].appl 	generatedWSAs 	0
scalar MyScenario.node[1].appl 	receivedWSAs 	0
scalar MyScenario.node[1].nic.phy80211p 	busyTime 	0.00055345029239766
scalar MyScenario.node[1].nic.mac1609_4 	ReceivedUnicastPackets 	0
scalar MyScenario.node[1].nic.mac1609_4 	ReceivedBroadcasts 	91
scalar MyScenario.node[1].nic.mac1609_4 	SentPackets 	17
scalar MyScenario.node[1].nic.mac1609_4 	SNIRLostPackets 	0
scalar MyScenario.node[1].nic.mac1609_4 	RXTXLostPackets 	0
scalar MyScenario.node[1].nic.mac1609_4 	TotalLostPackets 	0
scalar MyScenario.node[1].nic.mac1609_4 	DroppedPacketsInMac 	0
scalar MyScenario.node[1].nic.mac1609_4 	TooLittleTime 	0
scalar MyScenario.node[1].nic.mac1609_4 	TimesIntoBackoff 	17
scalar MyScenario.node[1].nic.mac1609_4 	SlotsBackoff 	21
scalar MyScenario.node[1].nic.mac1609_4 	NumInternalContention 	0
scalar MyScenario.node[1].nic.mac1609_4 	totalBusyTime 	0.011249
scalar MyScenario.node[1].veinsmobility 	startTime 	10800
scalar MyScenario.node[1].veinsmobility 	totalTime 	17
scalar MyScenario.node[1].veinsmobility 	stopTime 	10817.1
scalar MyScenario.node[1].veinsmobility 	minSpeed 	37.20369221558
scalar MyScenario.node[1].veinsmobility 	maxSpeed 	37.350715848004
scalar MyScenario.node[1].veinsmobility 	totalDistance 	633.71004441781
scalar MyScenario.node[1].veinsmobility 	totalCO2Emission 	130.40608584927
scalar MyScenario.node[8].appl 	generatedWSMs 	0
scalar MyScenario.node[8].appl 	receivedWSMs 	0
scalar MyScenario.node[8].appl 	generatedBSMs 	20
scalar MyScenario.node[8].appl 	receivedBSMs 	134
scalar MyScenario.node[8].appl 	generatedWSAs 	0
scalar MyScenario.node[8].appl 	receivedWSAs 	0
scalar MyScenario.node[8].nic.phy80211p 	busyTime 	0.00068823529411765
scalar MyScenario.node[8].nic.mac1609_4 	ReceivedUnicastPackets 	0
scalar MyScenario.node[8].nic.mac1609_4 	ReceivedBroadcasts 	134
scalar MyScenario.node[8].nic.mac1609_4 	SentPackets 	20
scalar MyScenario.node[8].nic.mac1609_4 	SNIRLostPackets 	1
scalar MyScenario.node[8].nic.mac1609_4 	RXTXLostPackets 	0
scalar MyScenario.node[8].nic.mac1609_4 	TotalLostPackets 	1
scalar MyScenario.node[8].nic.mac1609_4 	DroppedPacketsInMac 	0
scalar MyScenario.node[8].nic.mac1609_4 	TooLittleTime 	0
scalar MyScenario.node[8].nic.mac1609_4 	TimesIntoBackoff 	20
scalar MyScenario.node[8].nic.mac1609_4 	SlotsBackoff 	23
scalar MyScenario.node[8].nic.mac1609_4 	NumInternalContention 	0
scalar MyScenario.node[8].nic.mac1609_4 	totalBusyTime 	0.01614
scalar MyScenario.node[8].veinsmobility 	startTime 	10800
scalar MyScenario.node[8].veinsmobility 	totalTime 	20.3
scalar MyScenario.node[8].veinsmobility 	stopTime 	10820.4
scalar MyScenario.node[8].veinsmobility 	minSpeed 	29.886150179799
scalar MyScenario.node[8].veinsmobility 	maxSpeed 	29.999994311808
scalar MyScenario.node[8].veinsmobility 	totalDistance 	607.80741878795
scalar MyScenario.node[8].veinsmobility 	totalCO2Emission 	103.17084613546
scalar MyScenario.node[3].appl 	generatedWSMs 	0
scalar MyScenario.node[3].appl 	receivedWSMs 	0
scalar MyScenario.node[3].appl 	generatedBSMs 	21
scalar MyScenario.node[3].appl 	receivedBSMs 	119
scalar MyScenario.node[3].appl 	generatedWSAs 	0
scalar MyScenario.node[3].appl 	receivedWSAs 	0
scalar MyScenario.node[3].nic.phy80211p 	busyTime 	0.00059712918660287
scalar MyScenario.node[3].nic.mac1609_4 	ReceivedUnicastPackets 	0
scalar MyScenario.node[3].nic.mac1609_4 	ReceivedBroadcasts 	119
scalar MyScenario.node[3].nic.mac1609_4 	SentPackets 	21
scalar MyScenario.node[3].nic.mac1609_4 	SNIRLostPackets 	1
scalar MyScenario.node[3].nic.mac1609_4 	RXTXLostPackets 	0
scalar MyScenario.node[3].nic.mac1609_4 	TotalLostPackets 	1
scalar MyScenario.node[3].nic.mac1609_4 	DroppedPacketsInMac 	0
scalar MyScenario.node[3].nic.mac1609_4 	TooLittleTime 	0
scalar MyScenario.node[3].nic.mac1609_4 	TimesIntoBackoff 	21
scalar MyScenario.node[3].nic.mac1609_4 	SlotsBackoff 	31
scalar MyScenario.node[3].nic.mac1609_4 	NumInternalContention 	0
scalar MyScenario.node[3].nic.mac1609_4 	totalBusyTime 	0.014685
scalar MyScenario.node[3].veinsmobility 	startTime 	10800
scalar MyScenario.node[3].veinsmobility 	totalTime 	20.8
scalar MyScenario.node[3].veinsmobility 	stopTime 	10820.9
scalar MyScenario.node[3].veinsmobility 	minSpeed 	40.18785066258
scalar MyScenario.node[3].veinsmobility 	maxSpeed 	40.326612088403
scalar MyScenario.node[3].veinsmobility 	totalDistance 	838.36399365528
scalar MyScenario.node[3].veinsmobility 	totalCO2Emission 	187.99805526074
scalar MyScenario.node[7].appl 	generatedWSMs 	0
scalar MyScenario.node[7].appl 	receivedWSMs 	0
scalar MyScenario.node[7].appl 	generatedBSMs 	22
scalar MyScenario.node[7].appl 	receivedBSMs 	133
scalar MyScenario.node[7].appl 	generatedWSAs 	0
scalar MyScenario.node[7].appl 	receivedWSAs 	0
scalar MyScenario.node[7].nic.phy80211p 	busyTime 	0.00063449541284404
scalar MyScenario.node[7].nic.mac1609_4 	ReceivedUnicastPackets 	0
scalar MyScenario.node[7].nic.mac1609_4 	ReceivedBroadcasts 	133
scalar MyScenario.node[7].nic.mac1609_4 	SentPackets 	22
scalar MyScenario.node[7].nic.mac1609_4 	SNIRLostPackets 	0
scalar MyScenario.node[7].nic.mac1609_4 	RXTXLostPackets 	0
scalar MyScenario.node[7].nic.mac1609_4 	TotalLostPackets 	0
scalar MyScenario.node[7].nic.mac1609_4 	DroppedPacketsInMac 	0
scalar MyScenario.node[7].nic.mac1609_4 	TooLittleTime 	0
scalar MyScenario.node[7].nic.mac1609_4 	TimesIntoBackoff 	22
scalar MyScenario.node[7].nic.mac1609_4 	SlotsBackoff 	26
scalar MyScenario.node[7].nic.mac1609_4 	NumInternalContention 	0
scalar MyScenario.node[7].nic.mac1609_4 	totalBusyTime 	0.016142
scalar MyScenario.node[7].veinsmobility 	startTime 	10800
scalar MyScenario.node[7].veinsmobility 	totalTime 	21.7
scalar MyScenario.node[7].veinsmobility 	stopTime 	10821.8
scalar MyScenario.node[7].veinsmobility 	minSpeed 	30.392544100331
scalar MyScenario.node[7].veinsmobility 	maxSpeed 	36.697982774457
scalar MyScenario.node[7].veinsmobility 	totalDistance 	702.01871416931
scalar MyScenario.node[7].veinsmobility 	totalCO2Emission 	79.164033235291
scalar MyScenario.node[4].appl 	generatedWSMs 	0
scalar MyScenario.node[4].appl 	receivedWSMs 	0
scalar MyScenario.node[4].appl 	generatedBSMs 	22
scalar MyScenario.node[4].appl 	receivedBSMs 	119
scalar MyScenario.node[4].appl 	generatedWSAs 	0
scalar MyScenario.node[4].appl 	receivedWSAs 	0
scalar MyScenario.node[4].nic.phy80211p 	busyTime 	0.00056
scalar MyScenario.node[4].nic.mac1609_4 	ReceivedUnicastPackets 	0
scalar MyScenario.node[4].nic.mac1609_4 	ReceivedBroadcasts 	119
scalar MyScenario.node[4].nic.mac1609_4 	SentPackets 	22
scalar MyScenario.node[4].nic.mac1609_4 	SNIRLostPackets 	0
scalar MyScenario.node[4].nic.mac1609_4 	RXTXLostPackets 	0
scalar MyScenario.node[4].nic.mac1609_4 	TotalLostPackets 	0
scalar MyScenario.node[4].nic.mac1609_4 	DroppedPacketsInMac 	0
scalar MyScenario.node[4].nic.mac1609_4 	TooLittleTime 	0
scalar MyScenario.node[4].nic.mac1609_4 	TimesIntoBackoff 	22
scalar MyScenario.node[4].nic.mac1609_4 	SlotsBackoff 	44
scalar MyScenario.node[4].nic.mac1609_4 	NumInternalContention 	0
scalar MyScenario.node[4].nic.mac1609_4 	totalBusyTime 	0.014686
scalar MyScenario.node[4].veinsmobility 	startTime 	10800
scalar MyScenario.node[4].veinsmobility 	totalTime 	22
scalar MyScenario.node[4].veinsmobility 	stopTime 	10822.1
scalar MyScenario.node[4].veinsmobility 	minSpeed 	40.14031527354
scalar MyScenario.node[4].veinsmobility 	maxSpeed 	40.37637846094
scalar MyScenario.node[4].veinsmobility 	totalDistance 	886.75653990085
scalar MyScenario.node[4].veinsmobility 	totalCO2Emission 	201.36757945477
scalar MyScenario.node[0].appl 	generatedWSMs 	0
scalar MyScenario.node[0].appl 	receivedWSMs 	0
scalar MyScenario.node[0].appl 	generatedBSMs 	24
scalar MyScenario.node[0].appl 	receivedBSMs 	111
scalar MyScenario.node[0].appl 	generatedWSAs 	0
scalar MyScenario.node[0].appl 	receivedWSAs 	0
scalar MyScenario.node[0].nic.phy80211p 	busyTime 	0.00049123404255319
scalar MyScenario.node[0].nic.mac1609_4 	ReceivedUnicastPackets 	0
scalar MyScenario.node[0].nic.mac1609_4 	ReceivedBroadcasts 	111
scalar MyScenario.node[0].nic.mac1609_4 	SentPackets 	24
scalar MyScenario.node[0].nic.mac1609_4 	SNIRLostPackets 	0
scalar MyScenario.node[0].nic.mac1609_4 	RXTXLostPackets 	0
scalar MyScenario.node[0].nic.mac1609_4 	TotalLostPackets 	0
scalar MyScenario.node[0].nic.mac1609_4 	DroppedPacketsInMac 	0
scalar MyScenario.node[0].nic.mac1609_4 	TooLittleTime 	0
scalar MyScenario.node[0].nic.mac1609_4 	TimesIntoBackoff 	24
scalar MyScenario.node[0].nic.mac1609_4 	SlotsBackoff 	31
scalar MyScenario.node[0].nic.mac1609_4 	NumInternalContention 	0
scalar MyScenario.node[0].nic.mac1609_4 	totalBusyTime 	0.014064
scalar MyScenario.node[0].veinsmobility 	startTime 	10800
scalar MyScenario.node[0].veinsmobility 	totalTime 	23.4
scalar MyScenario.node[0].veinsmobility 	stopTime 	10823.5
scalar MyScenario.node[0].veinsmobility 	minSpeed 	30.110646518936
scalar MyScenario.node[0].veinsmobility 	maxSpeed 	30.248979086062
scalar MyScenario.node[0].veinsmobility 	totalDistance 	705.37571783591
scalar MyScenario.node[0].veinsmobility 	totalCO2Emission 	124.02584020351
scalar MyScenario.node[12].appl 	generatedWSMs 	0
scalar MyScenario.node[12].appl 	receivedWSMs 	0
scalar MyScenario.node[12].appl 	generatedBSMs 	24
scalar MyScenario.node[12].appl 	receivedBSMs 	80
scalar MyScenario.node[12].appl 	generatedWSAs 	0
scalar MyScenario.node[12].appl 	receivedWSAs 	0
scalar MyScenario.node[12].nic.phy80211p 	busyTime 	0.00034811715481172
scalar MyScenario.node[12].nic.mac1609_4 	ReceivedUnicastPackets 	0
scalar MyScenario.node[12].nic.mac1609_4 	ReceivedBroadcasts 	80
scalar MyScenario.node[12].nic.mac1609_4 	SentPackets 	24
scalar MyScenario.node[12].nic.mac1609_4 	SNIRLostPackets 	0
scalar MyScenario.node[12].nic.mac1609_4 	RXTXLostPackets 	0
scalar MyScenario.node[12].nic.mac1609_4 	TotalLostPackets 	0
scalar MyScenario.node[12].nic.mac1609_4 	DroppedPacketsInMac 	0
scalar MyScenario.node[12].nic.mac1609_4 	TooLittleTime 	0
scalar MyScenario.node[12].nic.mac1609_4 	TimesIntoBackoff 	24
scalar MyScenario.node[12].nic.mac1609_4 	SlotsBackoff 	39
scalar MyScenario.node[12].nic.mac1609_4 	NumInternalContention 	0
scalar MyScenario.node[12].nic.mac1609_4 	totalBusyTime 	0.01084
scalar MyScenario.node[12].veinsmobility 	startTime 	10811.1
scalar MyScenario.node[12].veinsmobility 	totalTime 	23.8
scalar MyScenario.node[12].veinsmobility 	stopTime 	10835
scalar MyScenario.node[12].veinsmobility 	minSpeed 	37.742132979759
scalar MyScenario.node[12].veinsmobility 	maxSpeed 	37.880163942638
scalar MyScenario.node[12].veinsmobility 	totalDistance 	900.87846969876
scalar MyScenario.node[12].veinsmobility 	totalCO2Emission 	188.55241306339
scalar MyScenario.node[14].appl 	generatedWSMs 	0
scalar MyScenario.node[14].appl 	receivedWSMs 	0
scalar MyScenario.node[14].appl 	generatedBSMs 	26
scalar MyScenario.node[14].appl 	receivedBSMs 	64
scalar MyScenario.node[14].appl 	generatedWSAs 	0
scalar MyScenario.node[14].appl 	receivedWSAs 	0
scalar MyScenario.node[14].nic.phy80211p 	busyTime 	0.00025307984790875
scalar MyScenario.node[14].nic.mac1609_4 	ReceivedUnicastPackets 	0
scalar MyScenario.node[14].nic.mac1609_4 	ReceivedBroadcasts 	64
scalar MyScenario.node[14].nic.mac1609_4 	SentPackets 	26
scalar MyScenario.node[14].nic.mac1609_4 	SNIRLostPackets 	0
scalar MyScenario.node[14].nic.mac1609_4 	RXTXLostPackets 	0
scalar MyScenario.node[14].nic.mac1609_4 	TotalLostPackets 	0
scalar MyScenario.node[14].nic.mac1609_4 	DroppedPacketsInMac 	0
scalar MyScenario.node[14].nic.mac1609_4 	TooLittleTime 	0
scalar MyScenario.node[14].nic.mac1609_4 	TimesIntoBackoff 	26
scalar MyScenario.node[14].nic.mac1609_4 	SlotsBackoff 	43
scalar MyScenario.node[14].nic.mac1609_4 	NumInternalContention 	0
scalar MyScenario.node[14].nic.mac1609_4 	totalBusyTime 	0.009386
scalar MyScenario.node[14].veinsmobility 	startTime 	10818.3
scalar MyScenario.node[14].veinsmobility 	totalTime 	26.2
scalar MyScenario.node[14].veinsmobility 	stopTime 	10844.6
scalar MyScenario.node[14].veinsmobility 	minSpeed 	34.201533510063
scalar MyScenario.node[14].veinsmobility 	maxSpeed 	34.34072789096
scalar MyScenario.node[14].veinsmobility 	totalDistance 	898.84269434286
scalar MyScenario.node[14].veinsmobility 	totalCO2Emission 	171.31907142108
scalar MyScenario.node[13].appl 	generatedWSMs 	0
scalar MyScenario.node[13].appl 	receivedWSMs 	0
scalar MyScenario.node[13].appl 	generatedBSMs 	31
scalar MyScenario.node[13].appl 	receivedBSMs 	84
scalar MyScenario.node[13].appl 	generatedWSAs 	0
scalar MyScenario.node[13].appl 	receivedWSAs 	0
scalar MyScenario.node[13].nic.phy80211p 	busyTime 	0.00028927152317881
scalar MyScenario.node[13].nic.mac1609_4 	ReceivedUnicastPackets 	0
scalar MyScenario.node[13].nic.mac1609_4 	ReceivedBroadcasts 	84
scalar MyScenario.node[13].nic.mac1609_4 	SentPackets 	31
scalar MyScenario.node[13].nic.mac1609_4 	SNIRLostPackets 	0
scalar MyScenario.node[13].nic.mac1609_4 	RXTXLostPackets 	0
scalar MyScenario.node[13].nic.mac1609_4 	TotalLostPackets 	0
scalar MyScenario.node[13].nic.mac1609_4 	DroppedPacketsInMac 	0
scalar MyScenario.node[13].nic.mac1609_4 	TooLittleTime 	0
scalar MyScenario.node[13].nic.mac1609_4 	TimesIntoBackoff 	31
scalar MyScenario.node[13].nic.mac1609_4 	SlotsBackoff 	52
scalar MyScenario.node[13].nic.mac1609_4 	NumInternalContention 	0
scalar MyScenario.node[13].nic.mac1609_4 	totalBusyTime 	0.011991
scalar MyScenario.node[13].veinsmobility 	startTime 	10816.1
scalar MyScenario.node[13].veinsmobility 	totalTime 	30.1
scalar MyScenario.node[13].veinsmobility 	stopTime 	10846.3
scalar MyScenario.node[13].veinsmobility 	minSpeed 	29.881013314789
scalar MyScenario.node[13].veinsmobility 	maxSpeed 	29.999411968645
scalar MyScenario.node[13].veinsmobility 	totalDistance 	900.1360579451
scalar MyScenario.node[13].veinsmobility 	totalCO2Emission 	155.0223016596
scalar MyScenario.node[16].appl 	generatedWSMs 	0
scalar MyScenario.node[16].appl 	receivedWSMs 	0
scalar MyScenario.node[16].appl 	generatedBSMs 	26
scalar MyScenario.node[16].appl 	receivedBSMs 	66
scalar MyScenario.node[16].appl 	generatedWSAs 	0
scalar MyScenario.node[16].appl 	receivedWSAs 	0
scalar MyScenario.node[16].nic.phy80211p 	busyTime 	0.00025901886792453
scalar MyScenario.node[16].nic.mac1609_4 	ReceivedUnicastPackets 	0
scalar MyScenario.node[16].nic.mac1609_4 	ReceivedBroadcasts 	66
scalar MyScenario.node[16].nic.mac1609_4 	SentPackets 	26
scalar MyScenario.node[16].nic.mac1609_4 	SNIRLostPackets 	0
scalar MyScenario.node[16].nic.mac1609_4 	RXTXLostPackets 	0
scalar MyScenario.node[16].nic.mac1609_4 	TotalLostPackets 	0
scalar MyScenario.node[16].nic.mac1609_4 	DroppedPacketsInMac 	0
scalar MyScenario.node[16].nic.mac1609_4 	TooLittleTime 	0
scalar MyScenario.node[16].nic.mac1609_4 	TimesIntoBackoff 	26
scalar MyScenario.node[16].nic.mac1609_4 	SlotsBackoff 	46
scalar MyScenario.node[16].nic.mac1609_4 	NumInternalContention 	0
scalar MyScenario.node[16].nic.mac1609_4 	totalBusyTime 	0.009594
scalar MyScenario.node[16].veinsmobility 	startTime 	10821.5
scalar MyScenario.node[16].veinsmobility 	totalTime 	26.4
scalar MyScenario.node[16].veinsmobility 	stopTime 	10848
scalar MyScenario.node[16].veinsmobility 	minSpeed 	31.558563771183
scalar MyScenario.node[16].veinsmobility 	maxSpeed 	34.987563636486
scalar MyScenario.node[16].veinsmobility 	totalDistance 	902.54062710078
scalar MyScenario.node[16].veinsmobility 	totalCO2Emission 	151.08143630172
scalar MyScenario.node[17].appl 	generatedWSMs 	0
scalar MyScenario.node[17].appl 	receivedWSMs 	0
scalar MyScenario.node[17].appl 	generatedBSMs 	30
scalar MyScenario.node[17].appl 	receivedBSMs 	97
scalar MyScenario.node[17].appl 	generatedWSAs 	0
scalar MyScenario.node[17].appl 	receivedWSAs 	0
scalar MyScenario.node[17].nic.phy80211p 	busyTime 	0.00033526315789474
scalar MyScenario.node[17].nic.mac1609_4 	ReceivedUnicastPackets 	0
scalar MyScenario.node[17].nic.mac1609_4 	ReceivedBroadcasts 	97
scalar MyScenario.node[17].nic.mac1609_4 	SentPackets 	30
scalar MyScenario.node[17].nic.mac1609_4 	SNIRLostPackets 	1
scalar MyScenario.node[17].nic.mac1609_4 	RXTXLostPackets 	0
scalar MyScenario.node[17].nic.mac1609_4 	TotalLostPackets 	1
scalar MyScenario.node[17].nic.mac1609_4 	DroppedPacketsInMac 	0
scalar MyScenario.node[17].nic.mac1609_4 	TooLittleTime 	0
scalar MyScenario.node[17].nic.mac1609_4 	TimesIntoBackoff 	30
scalar MyScenario.node[17].nic.mac1609_4 	SlotsBackoff 	42
scalar MyScenario.node[17].nic.mac1609_4 	NumInternalContention 	0
scalar MyScenario.node[17].nic.mac1609_4 	totalBusyTime 	0.013342
scalar MyScenario.node[17].veinsmobility 	startTime 	10826.3
scalar MyScenario.node[17].veinsmobility 	totalTime 	30.3
scalar MyScenario.node[17].veinsmobility 	stopTime 	10856.7
scalar MyScenario.node[17].veinsmobility 	minSpeed 	29.647106879566
scalar MyScenario.node[17].veinsmobility 	maxSpeed 	29.794414957986
scalar MyScenario.node[17].veinsmobility 	totalDistance 	900.53502776835
scalar MyScenario.node[17].veinsmobility 	totalCO2Emission 	157.49448651923
scalar MyScenario.node[19].appl 	generatedWSMs 	0
scalar MyScenario.node[19].appl 	receivedWSMs 	0
scalar MyScenario.node[19].appl 	generatedBSMs 	27
scalar MyScenario.node[19].appl 	receivedBSMs 	149
scalar MyScenario.node[19].appl 	generatedWSAs 	0
scalar MyScenario.node[19].appl 	receivedWSAs 	0
scalar MyScenario.node[19].nic.phy80211p 	busyTime 	0.00058426966292135
scalar MyScenario.node[19].nic.mac1609_4 	ReceivedUnicastPackets 	0
scalar MyScenario.node[19].nic.mac1609_4 	ReceivedBroadcasts 	149
scalar MyScenario.node[19].nic.mac1609_4 	SentPackets 	27
scalar MyScenario.node[19].nic.mac1609_4 	SNIRLostPackets 	1
scalar MyScenario.node[19].nic.mac1609_4 	RXTXLostPackets 	0
scalar MyScenario.node[19].nic.mac1609_4 	TotalLostPackets 	1
scalar MyScenario.node[19].nic.mac1609_4 	DroppedPacketsInMac 	0
scalar MyScenario.node[19].nic.mac1609_4 	TooLittleTime 	0
scalar MyScenario.node[19].nic.mac1609_4 	TimesIntoBackoff 	27
scalar MyScenario.node[19].nic.mac1609_4 	SlotsBackoff 	38
scalar MyScenario.node[19].nic.mac1609_4 	NumInternalContention 	0
scalar MyScenario.node[19].nic.mac1609_4 	totalBusyTime 	0.018435
scalar MyScenario.node[19].veinsmobility 	startTime 	10843.1
scalar MyScenario.node[19].veinsmobility 	totalTime 	26.6
scalar MyScenario.node[19].veinsmobility 	stopTime 	10869.8
scalar MyScenario.node[19].veinsmobility 	minSpeed 	33.798781956939
scalar MyScenario.node[19].veinsmobility 	maxSpeed 	33.938409926059
scalar MyScenario.node[19].veinsmobility 	totalDistance 	899.88485772006
scalar MyScenario.node[19].veinsmobility 	totalCO2Emission 	169.94803632369
scalar MyScenario.node[21].appl 	generatedWSMs 	0
scalar MyScenario.node[21].appl 	receivedWSMs 	0
scalar MyScenario.node[21].appl 	generatedBSMs 	27
scalar MyScenario.node[21].appl 	receivedBSMs 	154
scalar MyScenario.node[21].appl 	generatedWSAs 	0
scalar MyScenario.node[21].appl 	receivedWSAs 	0
scalar MyScenario.node[21].nic.phy80211p 	busyTime 	0.00059985018726592
scalar MyScenario.node[21].nic.mac1609_4 	ReceivedUnicastPackets 	0
scalar MyScenario.node[21].nic.mac1609_4 	ReceivedBroadcasts 	154
scalar MyScenario.node[21].nic.mac1609_4 	SentPackets 	27
scalar MyScenario.node[21].nic.mac1609_4 	SNIRLostPackets 	0
scalar MyScenario.node[21].nic.mac1609_4 	RXTXLostPackets 	0
scalar MyScenario.node[21].nic.mac1609_4 	TotalLostPackets 	0
scalar MyScenario.node[21].nic.mac1609_4 	DroppedPacketsInMac 	0
scalar MyScenario.node[21].nic.mac1609_4 	TooLittleTime 	0
scalar MyScenario.node[21].nic.mac1609_4 	TimesIntoBackoff 	27
scalar MyScenario.node[21].nic.mac1609_4 	SlotsBackoff 	35
scalar MyScenario.node[21].nic.mac1609_4 	NumInternalContention 	0
scalar MyScenario.node[21].nic.mac1609_4 	totalBusyTime 	0.018851
scalar MyScenario.node[21].veinsmobility 	startTime 	10844.3
scalar MyScenario.node[21].veinsmobility 	totalTime 	26.6
scalar MyScenario.node[21].veinsmobility 	stopTime 	10871
scalar MyScenario.node[21].veinsmobility 	minSpeed 	33.762445900279
scalar MyScenario.node[21].veinsmobility 	maxSpeed 	33.998965553989
scalar MyScenario.node[21].veinsmobility 	totalDistance 	900.12579826092
scalar MyScenario.node[21].veinsmobility 	totalCO2Emission 	180.25391184595
scalar MyScenario.node[23].appl 	generatedWSMs 	0
scalar MyScenario.node[23].appl 	receivedWSMs 	0
scalar MyScenario.node[23].appl 	generatedBSMs 	27
scalar MyScenario.node[23].appl 	receivedBSMs 	153
scalar MyScenario.node[23].appl 	generatedWSAs 	0
scalar MyScenario.node[23].appl 	receivedWSAs 	0
scalar MyScenario.node[23].nic.phy80211p 	busyTime 	0.00059595505617978
scalar MyScenario.node[23].nic.mac1609_4 	ReceivedUnicastPackets 	0
scalar MyScenario.node[23].nic.mac1609_4 	ReceivedBroadcasts 	153
scalar MyScenario.node[23].nic.mac1609_4 	SentPackets 	27
scalar MyScenario.node[23].nic.mac1609_4 	SNIRLostPackets 	0
scalar MyScenario.node[23].nic.mac1609_4 	RXTXLostPackets 	0
scalar MyScenario.node[23].nic.mac1609_4 	TotalLostPackets 	0
scalar MyScenario.node[23].nic.mac1609_4 	DroppedPacketsInMac 	0
scalar MyScenario.node[23].nic.mac1609_4 	TooLittleTime 	0
scalar MyScenario.node[23].nic.mac1609_4 	TimesIntoBackoff 	27
scalar MyScenario.node[23].nic.mac1609_4 	SlotsBackoff 	39
scalar MyScenario.node[23].nic.mac1609_4 	NumInternalContention 	0
scalar MyScenario.node[23].nic.mac1609_4 	totalBusyTime 	0.018747
scalar MyScenario.node[23].veinsmobility 	startTime 	10845.5
scalar MyScenario.node[23].veinsmobility 	totalTime 	26.6
scalar MyScenario.node[23].veinsmobility 	stopTime 	10872.2
scalar MyScenario.node[23].veinsmobility 	minSpeed 	33.72957161362
scalar MyScenario.node[23].veinsmobility 	maxSpeed 	34.039201258535
scalar MyScenario.node[23].veinsmobility 	totalDistance 	900.41330320033
scalar MyScenario.node[23].veinsmobility 	totalCO2Emission 	187.82286734963
scalar MyScenario.node[22].appl 	generatedWSMs 	0
scalar MyScenario.node[22].appl 	receivedWSMs 	0
scalar MyScenario.node[22].appl 	generatedBSMs 	30
scalar MyScenario.node[22].appl 	receivedBSMs 	127
scalar MyScenario.node[22].appl 	generatedWSAs 	0
scalar MyScenario.node[22].appl 	receivedWSAs 	0
scalar MyScenario.node[22].nic.phy80211p 	busyTime 	0.00044225913621262
scalar MyScenario.node[22].nic.mac1609_4 	ReceivedUnicastPackets 	0
scalar MyScenario.node[22].nic.mac1609_4 	ReceivedBroadcasts 	127
scalar MyScenario.node[22].nic.mac1609_4 	SentPackets 	30
scalar MyScenario.node[22].nic.mac1609_4 	SNIRLostPackets 	1
scalar MyScenario.node[22].nic.mac1609_4 	RXTXLostPackets 	0
scalar MyScenario.node[22].nic.mac1609_4 	TotalLostPackets 	1
scalar MyScenario.node[22].nic.mac1609_4 	DroppedPacketsInMac 	0
scalar MyScenario.node[22].nic.mac1609_4 	TooLittleTime 	0
scalar MyScenario.node[22].nic.mac1609_4 	TimesIntoBackoff 	30
scalar MyScenario.node[22].nic.mac1609_4 	SlotsBackoff 	48
scalar MyScenario.node[22].nic.mac1609_4 	NumInternalContention 	0
scalar MyScenario.node[22].nic.mac1609_4 	totalBusyTime 	0.016462
scalar MyScenario.node[22].veinsmobility 	startTime 	10844.3
scalar MyScenario.node[22].veinsmobility 	totalTime 	30
scalar MyScenario.node[22].veinsmobility 	stopTime 	10874.4
scalar MyScenario.node[22].veinsmobility 	minSpeed 	29.885198162708
scalar MyScenario.node[22].veinsmobility 	maxSpeed 	29.999998718738
scalar MyScenario.node[22].veinsmobility 	totalDistance 	899.26821199559
scalar MyScenario.node[22].veinsmobility 	totalCO2Emission 	153.83742217308
scalar MyScenario.node[24].appl 	generatedWSMs 	0
scalar MyScenario.node[24].appl 	receivedWSMs 	0
scalar MyScenario.node[24].appl 	generatedBSMs 	24
scalar MyScenario.node[24].appl 	receivedBSMs 	153
scalar MyScenario.node[24].appl 	generatedWSAs 	0
scalar MyScenario.node[24].appl 	receivedWSAs 	0
scalar MyScenario.node[24].nic.phy80211p 	busyTime 	0.00063903614457831
scalar MyScenario.node[24].nic.mac1609_4 	ReceivedUnicastPackets 	0
scalar MyScenario.node[24].nic.mac1609_4 	ReceivedBroadcasts 	153
scalar MyScenario.node[24].nic.mac1609_4 	SentPackets 	24
scalar MyScenario.node[24].nic.mac1609_4 	SNIRLostPackets 	0
scalar MyScenario.node[24].nic.mac1609_4 	RXTXLostPackets 	0
scalar MyScenario.node[24].nic.mac1609_4 	TotalLostPackets 	0
scalar MyScenario.node[24].nic.mac1609_4 	DroppedPacketsInMac 	0
scalar MyScenario.node[24].nic.mac1609_4 	TooLittleTime 	0
scalar MyScenario.node[24].nic.mac1609_4 	TimesIntoBackoff 	24
scalar MyScenario.node[24].nic.mac1609_4 	SlotsBackoff 	39
scalar MyScenario.node[24].nic.mac1609_4 	NumInternalContention 	0
scalar MyScenario.node[24].nic.mac1609_4 	totalBusyTime 	0.018432
scalar MyScenario.node[24].veinsmobility 	startTime 	10850.6
scalar MyScenario.node[24].veinsmobility 	totalTime 	24.8
scalar MyScenario.node[24].veinsmobility 	stopTime 	10875.5
scalar MyScenario.node[24].veinsmobility 	minSpeed 	36.28428827451
scalar MyScenario.node[24].veinsmobility 	maxSpeed 	36.423908429876
scalar MyScenario.node[24].veinsmobility 	totalDistance 	900.529275766
scalar MyScenario.node[24].veinsmobility 	totalCO2Emission 	181.5477937383
scalar MyScenario.node[26].appl 	generatedWSMs 	0
scalar MyScenario.node[26].appl 	receivedWSMs 	0
scalar MyScenario.node[26].appl 	generatedBSMs 	22
scalar MyScenario.node[26].appl 	receivedBSMs 	139
scalar MyScenario.node[26].appl 	generatedWSAs 	0
scalar MyScenario.node[26].appl 	receivedWSAs 	0
scalar MyScenario.node[26].nic.phy80211p 	busyTime 	0.00063682819383254
scalar MyScenario.node[26].nic.mac1609_4 	ReceivedUnicastPackets 	0
scalar MyScenario.node[26].nic.mac1609_4 	ReceivedBroadcasts 	139
scalar MyScenario.node[26].nic.mac1609_4 	SentPackets 	22
scalar MyScenario.node[26].nic.mac1609_4 	SNIRLostPackets 	0
scalar MyScenario.node[26].nic.mac1609_4 	RXTXLostPackets 	0
scalar MyScenario.node[26].nic.mac1609_4 	TotalLostPackets 	0
scalar MyScenario.node[26].nic.mac1609_4 	DroppedPacketsInMac 	0
scalar MyScenario.node[26].nic.mac1609_4 	TooLittleTime 	0
scalar MyScenario.node[26].nic.mac1609_4 	TimesIntoBackoff 	22
scalar MyScenario.node[26].nic.mac1609_4 	SlotsBackoff 	38
scalar MyScenario.node[26].nic.mac1609_4 	NumInternalContention 	0
scalar MyScenario.node[26].nic.mac1609_4 	totalBusyTime 	0.016766
scalar MyScenario.node[26].veinsmobility 	startTime 	10855.2
scalar MyScenario.node[26].veinsmobility 	totalTime 	22.6
scalar MyScenario.node[26].veinsmobility 	stopTime 	10877.9
scalar MyScenario.node[26].veinsmobility 	minSpeed 	39.6736627263
scalar MyScenario.node[26].veinsmobility 	maxSpeed 	39.802013703758
scalar MyScenario.node[26].veinsmobility 	totalDistance 	897.08227871849
scalar MyScenario.node[26].veinsmobility 	totalCO2Emission 	199.44780284271
scalar MyScenario.node[28].appl 	generatedWSMs 	0
scalar MyScenario.node[28].appl 	receivedWSMs 	0
scalar MyScenario.node[28].appl 	generatedBSMs 	20
scalar MyScenario.node[28].appl 	receivedBSMs 	122
scalar MyScenario.node[28].appl 	generatedWSAs 	0
scalar MyScenario.node[28].appl 	receivedWSAs 	0
scalar MyScenario.node[28].nic.phy80211p 	busyTime 	0.00061892682926829
scalar MyScenario.node[28].nic.mac1609_4 	ReceivedUnicastPackets 	0
scalar MyScenario.node[28].nic.mac1609_4 	ReceivedBroadcasts 	122
scalar MyScenario.node[28].nic.mac1609_4 	SentPackets 	20
scalar MyScenario.node[28].nic.mac1609_4 	SNIRLostPackets 	0
scalar MyScenario.node[28].nic.mac1609_4 	RXTXLostPackets 	0
scalar MyScenario.node[28].nic.mac1609_4 	TotalLostPackets 	0
scalar MyScenario.node[28].nic.mac1609_4 	DroppedPacketsInMac 	0
scalar MyScenario.node[28].nic.mac1609_4 	TooLittleTime 	0
scalar MyScenario.node[28].nic.mac1609_4 	TimesIntoBackoff 	20
scalar MyScenario.node[28].nic.mac1609_4 	SlotsBackoff 	27
scalar MyScenario.node[28].nic.mac1609_4 	NumInternalContention 	0
scalar MyScenario.node[28].nic.mac1609_4 	totalBusyTime 	0.014788
scalar MyScenario.node[28].veinsmobility 	startTime 	10858.9
scalar MyScenario.node[28].veinsmobility 	totalTime 	20.4
scalar MyScenario.node[28].veinsmobility 	stopTime 	10879.4
scalar MyScenario.node[28].veinsmobility 	minSpeed 	41.183668072817
scalar MyScenario.node[28].veinsmobility 	maxSpeed 	47.165996089399
scalar MyScenario.node[28].veinsmobility 	totalDistance 	897.20657345948
scalar MyScenario.node[28].veinsmobility 	totalCO2Emission 	163.05827184132
scalar MyScenario.node[29].appl 	generatedWSMs 	0
scalar MyScenario.node[29].appl 	receivedWSMs 	0
scalar MyScenario.node[29].appl 	generatedBSMs 	24
scalar MyScenario.node[29].appl 	receivedBSMs 	126
scalar MyScenario.node[29].appl 	generatedWSAs 	0
scalar MyScenario.node[29].appl 	receivedWSAs 	0
scalar MyScenario.node[29].nic.phy80211p 	busyTime 	0.00054828451882845
scalar MyScenario.node[29].nic.mac1609_4 	ReceivedUnicastPackets 	0
scalar MyScenario.node[29].nic.mac1609_4 	ReceivedBroadcasts 	126
scalar MyScenario.node[29].nic.mac1609_4 	SentPackets 	24
scalar MyScenario.node[29].nic.mac1609_4 	SNIRLostPackets 	0
scalar MyScenario.node[29].nic.mac1609_4 	RXTXLostPackets 	0
scalar MyScenario.node[29].nic.mac1609_4 	TotalLostPackets 	0
scalar MyScenario.node[29].nic.mac1609_4 	DroppedPacketsInMac 	0
scalar MyScenario.node[29].nic.mac1609_4 	TooLittleTime 	0
scalar MyScenario.node[29].nic.mac1609_4 	TimesIntoBackoff 	24
scalar MyScenario.node[29].nic.mac1609_4 	SlotsBackoff 	30
scalar MyScenario.node[29].nic.mac1609_4 	NumInternalContention 	0
scalar MyScenario.node[29].nic.mac1609_4 	totalBusyTime 	0.015624
scalar MyScenario.node[29].veinsmobility 	startTime 	10859.3
scalar MyScenario.node[29].veinsmobility 	totalTime 	23.8
scalar MyScenario.node[29].veinsmobility 	stopTime 	10883.2
scalar MyScenario.node[29].veinsmobility 	minSpeed 	37.714743722247
scalar MyScenario.node[29].veinsmobility 	maxSpeed 	37.849631303669
scalar MyScenario.node[29].veinsmobility 	totalDistance 	898.13912201739
scalar MyScenario.node[29].veinsmobility 	totalCO2Emission 	187.60581061983
scalar MyScenario.node[25].appl 	generatedWSMs 	0
scalar MyScenario.node[25].appl 	receivedWSMs 	0
scalar MyScenario.node[25].appl 	generatedBSMs 	30
scalar MyScenario.node[25].appl 	receivedBSMs 	151
scalar MyScenario.node[25].appl 	generatedWSAs 	0
scalar MyScenario.node[25].appl 	receivedWSAs 	0
scalar MyScenario.node[25].nic.phy80211p 	busyTime 	0.00052863787375415
scalar MyScenario.node[25].nic.mac1609_4 	ReceivedUnicastPackets 	0
scalar MyScenario.node[25].nic.mac1609_4 	ReceivedBroadcasts 	151
scalar MyScenario.node[25].nic.mac1609_4 	SentPackets 	30
scalar MyScenario.node[25].nic.mac1609_4 	SNIRLostPackets 	2
scalar MyScenario.node[25].nic.mac1609_4 	RXTXLostPackets 	0
scalar MyScenario.node[25].nic.mac1609_4 	TotalLostPackets 	2
scalar MyScenario.node[25].nic.mac1609_4 	DroppedPacketsInMac 	0
scalar MyScenario.node[25].nic.mac1609_4 	TooLittleTime 	0
scalar MyScenario.node[25].nic.mac1609_4 	TimesIntoBackoff 	30
scalar MyScenario.node[25].nic.mac1609_4 	SlotsBackoff 	46
scalar MyScenario.node[25].nic.mac1609_4 	NumInternalContention 	0
scalar MyScenario.node[25].nic.mac1609_4 	totalBusyTime 	0.019062
scalar MyScenario.node[25].veinsmobility 	startTime 	10854.5
scalar MyScenario.node[25].veinsmobility 	totalTime 	30
scalar MyScenario.node[25].veinsmobility 	stopTime 	10884.6
scalar MyScenario.node[25].veinsmobility 	minSpeed 	29.893999203246
scalar MyScenario.node[25].veinsmobility 	maxSpeed 	30.033132359737
scalar MyScenario.node[25].veinsmobility 	totalDistance 	899.90929998705
scalar MyScenario.node[25].veinsmobility 	totalCO2Emission 	156.25558588368
scalar MyScenario.node[27].appl 	generatedWSMs 	0
scalar MyScenario.node[27].appl 	receivedWSMs 	0
scalar MyScenario.node[27].appl 	generatedBSMs 	30
scalar MyScenario.node[27].appl 	receivedBSMs 	157
scalar MyScenario.node[27].appl 	generatedWSAs 	0
scalar MyScenario.node[27].appl 	receivedWSAs 	0
scalar MyScenario.node[27].nic.phy80211p 	busyTime 	0.00054976430976427
scalar MyScenario.node[27].nic.mac1609_4 	ReceivedUnicastPackets 	0
scalar MyScenario.node[27].nic.mac1609_4 	ReceivedBroadcasts 	157
scalar MyScenario.node[27].nic.mac1609_4 	SentPackets 	30
scalar MyScenario.node[27].nic.mac1609_4 	SNIRLostPackets 	0
scalar MyScenario.node[27].nic.mac1609_4 	RXTXLostPackets 	0
scalar MyScenario.node[27].nic.mac1609_4 	TotalLostPackets 	0
scalar MyScenario.node[27].nic.mac1609_4 	DroppedPacketsInMac 	0
scalar MyScenario.node[27].nic.mac1609_4 	TooLittleTime 	0
scalar MyScenario.node[27].nic.mac1609_4 	TimesIntoBackoff 	30
scalar MyScenario.node[27].nic.mac1609_4 	SlotsBackoff 	32
scalar MyScenario.node[27].nic.mac1609_4 	NumInternalContention 	0
scalar MyScenario.node[27].nic.mac1609_4 	totalBusyTime 	0.019478
scalar MyScenario.node[27].veinsmobility 	startTime 	10856.2
scalar MyScenario.node[27].veinsmobility 	totalTime 	29.6
scalar MyScenario.node[27].veinsmobility 	stopTime 	10885.9
scalar MyScenario.node[27].veinsmobility 	minSpeed 	29.964995661798
scalar MyScenario.node[27].veinsmobility 	maxSpeed 	32.009118140166
scalar MyScenario.node[27].veinsmobility 	totalDistance 	902.89114702174
scalar MyScenario.node[27].veinsmobility 	totalCO2Emission 	147.92980297779
scalar MyScenario.node[31].appl 	generatedWSMs 	0
scalar MyScenario.node[31].appl 	receivedWSMs 	0
scalar MyScenario.node[31].appl 	generatedBSMs 	22
scalar MyScenario.node[31].appl 	receivedBSMs 	54
scalar MyScenario.node[31].appl 	generatedWSAs 	0
scalar MyScenario.node[31].appl 	receivedWSAs 	0
scalar MyScenario.node[31].nic.phy80211p 	busyTime 	0.00025297297297297
scalar MyScenario.node[31].nic.mac1609_4 	ReceivedUnicastPackets 	0
scalar MyScenario.node[31].nic.mac1609_4 	ReceivedBroadcasts 	54
scalar MyScenario.node[31].nic.mac1609_4 	SentPackets 	22
scalar MyScenario.node[31].nic.mac1609_4 	SNIRLostPackets 	0
scalar MyScenario.node[31].nic.mac1609_4 	RXTXLostPackets 	0
scalar MyScenario.node[31].nic.mac1609_4 	TotalLostPackets 	0
scalar MyScenario.node[31].nic.mac1609_4 	DroppedPacketsInMac 	0
scalar MyScenario.node[31].nic.mac1609_4 	TooLittleTime 	0
scalar MyScenario.node[31].nic.mac1609_4 	TimesIntoBackoff 	22
scalar MyScenario.node[31].nic.mac1609_4 	SlotsBackoff 	35
scalar MyScenario.node[31].nic.mac1609_4 	NumInternalContention 	0
scalar MyScenario.node[31].nic.mac1609_4 	totalBusyTime 	0.007926
scalar MyScenario.node[31].veinsmobility 	startTime 	10874.4
scalar MyScenario.node[31].veinsmobility 	totalTime 	22.1
scalar MyScenario.node[31].veinsmobility 	stopTime 	10896.6
scalar MyScenario.node[31].veinsmobility 	minSpeed 	40.792367861678
scalar MyScenario.node[31].veinsmobility 	maxSpeed 	40.921805504092
scalar MyScenario.node[31].veinsmobility 	totalDistance 	901.89320341551
scalar MyScenario.node[31].veinsmobility 	totalCO2Emission 	205.49866727276
scalar MyScenario.node[32].appl 	generatedWSMs 	0
scalar MyScenario.node[32].appl 	receivedWSMs 	0
scalar MyScenario.node[32].appl 	generatedBSMs 	19
scalar MyScenario.node[32].appl 	receivedBSMs 	51
scalar MyScenario.node[32].appl 	generatedWSAs 	0
scalar MyScenario.node[32].appl 	receivedWSAs 	0
scalar MyScenario.node[32].nic.phy80211p 	busyTime 	0.00026653266331658
scalar MyScenario.node[32].nic.mac1609_4 	ReceivedUnicastPackets 	0
scalar MyScenario.node[32].nic.mac1609_4 	ReceivedBroadcasts 	51
scalar MyScenario.node[32].nic.mac1609_4 	SentPackets 	19
scalar MyScenario.node[32].nic.mac1609_4 	SNIRLostPackets 	0
scalar MyScenario.node[32].nic.mac1609_4 	RXTXLostPackets 	0
scalar MyScenario.node[32].nic.mac1609_4 	TotalLostPackets 	0
scalar MyScenario.node[32].nic.mac1609_4 	DroppedPacketsInMac 	0
scalar MyScenario.node[32].nic.mac1609_4 	TooLittleTime 	0
scalar MyScenario.node[32].nic.mac1609_4 	TimesIntoBackoff 	19
scalar MyScenario.node[32].nic.mac1609_4 	SlotsBackoff 	26
scalar MyScenario.node[32].nic.mac1609_4 	NumInternalContention 	0
scalar MyScenario.node[32].nic.mac1609_4 	totalBusyTime 	0.007299
scalar MyScenario.node[32].veinsmobility 	startTime 	10878
scalar MyScenario.node[32].veinsmobility 	totalTime 	19.8
scalar MyScenario.node[32].veinsmobility 	stopTime 	10897.9
scalar MyScenario.node[32].veinsmobility 	minSpeed 	45.397644453074
scalar MyScenario.node[32].veinsmobility 	maxSpeed 	45.525332210308
scalar MyScenario.node[32].veinsmobility 	totalDistance 	900.03997575193
scalar MyScenario.node[32].veinsmobility 	totalCO2Emission 	235.35017864409
scalar MyScenario.node[37].appl 	generatedWSMs 	0
scalar MyScenario.node[37].appl 	receivedWSMs 	0
scalar MyScenario.node[37].appl 	generatedBSMs 	2
scalar MyScenario.node[37].appl 	receivedBSMs 	5
scalar MyScenario.node[37].appl 	generatedWSAs 	0
scalar MyScenario.node[37].appl 	receivedWSAs 	0
scalar MyScenario.node[37].nic.phy80211p 	busyTime 	0.00037142857142857
scalar MyScenario.node[37].nic.mac1609_4 	ReceivedUnicastPackets 	0
scalar MyScenario.node[37].nic.mac1609_4 	ReceivedBroadcasts 	5
scalar MyScenario.node[37].nic.mac1609_4 	SentPackets 	2
scalar MyScenario.node[37].nic.mac1609_4 	SNIRLostPackets 	0
scalar MyScenario.node[37].nic.mac1609_4 	RXTXLostPackets 	0
scalar MyScenario.node[37].nic.mac1609_4 	TotalLostPackets 	0
scalar MyScenario.node[37].nic.mac1609_4 	DroppedPacketsInMac 	0
scalar MyScenario.node[37].nic.mac1609_4 	TooLittleTime 	0
scalar MyScenario.node[37].nic.mac1609_4 	TimesIntoBackoff 	2
scalar MyScenario.node[37].nic.mac1609_4 	SlotsBackoff 	0
scalar MyScenario.node[37].nic.mac1609_4 	NumInternalContention 	0
scalar MyScenario.node[37].nic.mac1609_4 	totalBusyTime 	0.00073
scalar MyScenario.node[37].veinsmobility 	startTime 	10898.6
scalar MyScenario.node[37].veinsmobility 	totalTime 	1.4
scalar MyScenario.node[37].veinsmobility 	stopTime 	10900
scalar MyScenario.node[37].veinsmobility 	minSpeed 	33.100160613086
scalar MyScenario.node[37].veinsmobility 	maxSpeed 	33.344751354109
scalar MyScenario.node[37].veinsmobility 	totalDistance 	46.440984164631
scalar MyScenario.node[37].veinsmobility 	totalCO2Emission 	10.137794271289
scalar MyScenario.node[39].appl 	generatedWSMs 	0
scalar MyScenario.node[39].appl 	receivedWSMs 	0
scalar MyScenario.node[39].appl 	generatedBSMs 	0
scalar MyScenario.node[39].appl 	receivedBSMs 	0
scalar MyScenario.node[39].appl 	generatedWSAs 	0
scalar MyScenario.node[39].appl 	receivedWSAs 	0
scalar MyScenario.node[39].nic.phy80211p 	busyTime 	0
scalar MyScenario.node[39].nic.mac1609_4 	ReceivedUnicastPackets 	0
scalar MyScenario.node[39].nic.mac1609_4 	ReceivedBroadcasts 	0
scalar MyScenario.node[39].nic.mac1609_4 	SentPackets 	0
scalar MyScenario.node[39].nic.mac1609_4 	SNIRLostPackets 	0
scalar MyScenario.node[39].nic.mac1609_4 	RXTXLostPackets 	0
scalar MyScenario.node[39].nic.mac1609_4 	TotalLostPackets 	0
scalar MyScenario.node[39].nic.mac1609_4 	DroppedPacketsInMac 	0
scalar MyScenario.node[39].nic.mac1609_4 	TooLittleTime 	0
scalar MyScenario.node[39].nic.mac1609_4 	TimesIntoBackoff 	0
scalar MyScenario.node[39].nic.mac1609_4 	SlotsBackoff 	0
scalar MyScenario.node[39].nic.mac1609_4 	NumInternalContention 	0
scalar MyScenario.node[39].nic.mac1609_4 	totalBusyTime 	0
scalar MyScenario.node[39].veinsmobility 	startTime 	10899.9
scalar MyScenario.node[39].veinsmobility 	totalTime 	0.1
scalar MyScenario.node[39].veinsmobility 	stopTime 	10900
scalar MyScenario.node[39].veinsmobility 	minSpeed 	33.407328065473
scalar MyScenario.node[39].veinsmobility 	maxSpeed 	33.407328065473
scalar MyScenario.node[39].veinsmobility 	totalDistance 	3.3367237693988
scalar MyScenario.node[39].veinsmobility 	totalCO2Emission 	0
scalar MyScenario.node[36].appl 	generatedWSMs 	0
scalar MyScenario.node[36].appl 	receivedWSMs 	0
scalar MyScenario.node[36].appl 	generatedBSMs 	2
scalar MyScenario.node[36].appl 	receivedBSMs 	7
scalar MyScenario.node[36].appl 	generatedWSAs 	0
scalar MyScenario.node[36].appl 	receivedWSAs 	0
scalar MyScenario.node[36].nic.phy80211p 	busyTime 	0.00032
scalar MyScenario.node[36].nic.mac1609_4 	ReceivedUnicastPackets 	0
scalar MyScenario.node[36].nic.mac1609_4 	ReceivedBroadcasts 	7
scalar MyScenario.node[36].nic.mac1609_4 	SentPackets 	2
scalar MyScenario.node[36].nic.mac1609_4 	SNIRLostPackets 	1
scalar MyScenario.node[36].nic.mac1609_4 	RXTXLostPackets 	0
scalar MyScenario.node[36].nic.mac1609_4 	TotalLostPackets 	1
scalar MyScenario.node[36].nic.mac1609_4 	DroppedPacketsInMac 	0
scalar MyScenario.node[36].nic.mac1609_4 	TooLittleTime 	0
scalar MyScenario.node[36].nic.mac1609_4 	TimesIntoBackoff 	2
scalar MyScenario.node[36].nic.mac1609_4 	SlotsBackoff 	4
scalar MyScenario.node[36].nic.mac1609_4 	NumInternalContention 	0
scalar MyScenario.node[36].nic.mac1609_4 	totalBusyTime 	0.001042
scalar MyScenario.node[36].veinsmobility 	startTime 	10897.4
scalar MyScenario.node[36].veinsmobility 	totalTime 	2.6
scalar MyScenario.node[36].veinsmobility 	stopTime 	10900
scalar MyScenario.node[36].veinsmobility 	minSpeed 	32.9581120305
scalar MyScenario.node[36].veinsmobility 	maxSpeed 	33.089704035796
scalar MyScenario.node[36].veinsmobility 	totalDistance 	85.772694019937
scalar MyScenario.node[36].veinsmobility 	totalCO2Emission 	16.571819400008
scalar MyScenario.node[38].appl 	generatedWSMs 	0
scalar MyScenario.node[38].appl 	receivedWSMs 	0
scalar MyScenario.node[38].appl 	generatedBSMs 	1
scalar MyScenario.node[38].appl 	receivedBSMs 	0
scalar MyScenario.node[38].appl 	generatedWSAs 	0
scalar MyScenario.node[38].appl 	receivedWSAs 	0
scalar MyScenario.node[38].nic.phy80211p 	busyTime 	0
scalar MyScenario.node[38].nic.mac1609_4 	ReceivedUnicastPackets 	0
scalar MyScenario.node[38].nic.mac1609_4 	ReceivedBroadcasts 	0
scalar MyScenario.node[38].nic.mac1609_4 	SentPackets 	1
scalar MyScenario.node[38].nic.mac1609_4 	SNIRLostPackets 	0
scalar MyScenario.node[38].nic.mac1609_4 	RXTXLostPackets 	0
scalar MyScenario.node[38].nic.mac1609_4 	TotalLostPackets 	0
scalar MyScenario.node[38].nic.mac1609_4 	DroppedPacketsInMac 	0
scalar MyScenario.node[38].nic.mac1609_4 	TooLittleTime 	0
scalar MyScenario.node[38].nic.mac1609_4 	TimesIntoBackoff 	1
scalar MyScenario.node[38].nic.mac1609_4 	SlotsBackoff 	1
scalar MyScenario.node[38].nic.mac1609_4 	NumInternalContention 	0
scalar MyScenario.node[38].nic.mac1609_4 	totalBusyTime 	0.000105
scalar MyScenario.node[38].veinsmobility 	startTime 	10899.4
scalar MyScenario.node[38].veinsmobility 	totalTime 	0.6
scalar MyScenario.node[38].veinsmobility 	stopTime 	10900
scalar MyScenario.node[38].veinsmobility 	minSpeed 	31.036897586645
scalar MyScenario.node[38].veinsmobility 	maxSpeed 	31.080694222036
scalar MyScenario.node[38].veinsmobility 	totalDistance 	18.654320297824
scalar MyScenario.node[38].veinsmobility 	totalCO2Emission 	2.5802074680199
scalar MyScenario.node[30].appl 	generatedWSMs 	0
scalar MyScenario.node[30].appl 	receivedWSMs 	0
scalar MyScenario.node[30].appl 	generatedBSMs 	29
scalar MyScenario.node[30].appl 	receivedBSMs 	95
scalar MyScenario.node[30].appl 	generatedWSAs 	0
scalar MyScenario.node[30].appl 	receivedWSAs 	0
scalar MyScenario.node[30].nic.phy80211p 	busyTime 	0.00034425087108014
scalar MyScenario.node[30].nic.mac1609_4 	ReceivedUnicastPackets 	0
scalar MyScenario.node[30].nic.mac1609_4 	ReceivedBroadcasts 	95
scalar MyScenario.node[30].nic.mac1609_4 	SentPackets 	29
scalar MyScenario.node[30].nic.mac1609_4 	SNIRLostPackets 	0
scalar MyScenario.node[30].nic.mac1609_4 	RXTXLostPackets 	0
scalar MyScenario.node[30].nic.mac1609_4 	TotalLostPackets 	0
scalar MyScenario.node[30].nic.mac1609_4 	DroppedPacketsInMac 	0
scalar MyScenario.node[30].nic.mac1609_4 	TooLittleTime 	0
scalar MyScenario.node[30].nic.mac1609_4 	TimesIntoBackoff 	29
scalar MyScenario.node[30].nic.mac1609_4 	SlotsBackoff 	35
scalar MyScenario.node[30].nic.mac1609_4 	NumInternalContention 	0
scalar MyScenario.node[30].nic.mac1609_4 	totalBusyTime 	0.012925
scalar MyScenario.node[30].veinsmobility 	startTime 	10871.3
scalar MyScenario.node[30].veinsmobility 	totalTime 	28.7
scalar MyScenario.node[30].veinsmobility 	stopTime 	10900
scalar MyScenario.node[30].veinsmobility 	minSpeed 	28.476008919061
scalar MyScenario.node[30].veinsmobility 	maxSpeed 	28.624657219409
scalar MyScenario.node[30].veinsmobility 	totalDistance 	818.52961256427
scalar MyScenario.node[30].veinsmobility 	totalCO2Emission 	143.8522957484
scalar MyScenario.node[33].appl 	generatedWSMs 	0
scalar MyScenario.node[33].appl 	receivedWSMs 	0
scalar MyScenario.node[33].appl 	generatedBSMs 	22
scalar MyScenario.node[33].appl 	receivedBSMs 	55
scalar MyScenario.node[33].appl 	generatedWSAs 	0
scalar MyScenario.node[33].appl 	receivedWSAs 	0
scalar MyScenario.node[33].nic.phy80211p 	busyTime 	0.00026118721461187
scalar MyScenario.node[33].nic.mac1609_4 	ReceivedUnicastPackets 	0
scalar MyScenario.node[33].nic.mac1609_4 	ReceivedBroadcasts 	55
scalar MyScenario.node[33].nic.mac1609_4 	SentPackets 	22
scalar MyScenario.node[33].nic.mac1609_4 	SNIRLostPackets 	0
scalar MyScenario.node[33].nic.mac1609_4 	RXTXLostPackets 	0
scalar MyScenario.node[33].nic.mac1609_4 	TotalLostPackets 	0
scalar MyScenario.node[33].nic.mac1609_4 	DroppedPacketsInMac 	0
scalar MyScenario.node[33].nic.mac1609_4 	TooLittleTime 	0
scalar MyScenario.node[33].nic.mac1609_4 	TimesIntoBackoff 	22
scalar MyScenario.node[33].nic.mac1609_4 	SlotsBackoff 	24
scalar MyScenario.node[33].nic.mac1609_4 	NumInternalContention 	0
scalar MyScenario.node[33].nic.mac1609_4 	totalBusyTime 	0.00803
scalar MyScenario.node[33].veinsmobility 	startTime 	10878.1
scalar MyScenario.node[33].veinsmobility 	totalTime 	21.9
scalar MyScenario.node[33].veinsmobility 	stopTime 	10900
scalar MyScenario.node[33].veinsmobility 	minSpeed 	30.418795700471
scalar MyScenario.node[33].veinsmobility 	maxSpeed 	37.908217296055
scalar MyScenario.node[33].veinsmobility 	totalDistance 	767.3066061836
scalar MyScenario.node[33].veinsmobility 	totalCO2Emission 	108.00423045016
scalar MyScenario.node[15].appl 	generatedWSMs 	0
scalar MyScenario.node[15].appl 	receivedWSMs 	0
scalar MyScenario.node[15].appl 	generatedBSMs 	79
scalar MyScenario.node[15].appl 	receivedBSMs 	10
scalar MyScenario.node[15].appl 	generatedWSAs 	0
scalar MyScenario.node[15].appl 	receivedWSAs 	0
scalar MyScenario.node[15].nic.phy80211p 	busyTime 	1.318124207858e-05
scalar MyScenario.node[15].nic.mac1609_4 	ReceivedUnicastPackets 	0
scalar MyScenario.node[15].nic.mac1609_4 	ReceivedBroadcasts 	10
scalar MyScenario.node[15].nic.mac1609_4 	SentPackets 	79
scalar MyScenario.node[15].nic.mac1609_4 	SNIRLostPackets 	0
scalar MyScenario.node[15].nic.mac1609_4 	RXTXLostPackets 	0
scalar MyScenario.node[15].nic.mac1609_4 	TotalLostPackets 	0
scalar MyScenario.node[15].nic.mac1609_4 	DroppedPacketsInMac 	0
scalar MyScenario.node[15].nic.mac1609_4 	TooLittleTime 	0
scalar MyScenario.node[15].nic.mac1609_4 	TimesIntoBackoff 	79
scalar MyScenario.node[15].nic.mac1609_4 	SlotsBackoff 	110
scalar MyScenario.node[15].nic.mac1609_4 	NumInternalContention 	0
scalar MyScenario.node[15].nic.mac1609_4 	totalBusyTime 	0.009335
scalar MyScenario.node[15].veinsmobility 	startTime 	10821.1
scalar MyScenario.node[15].veinsmobility 	totalTime 	78.9
scalar MyScenario.node[15].veinsmobility 	stopTime 	10900
scalar MyScenario.node[15].veinsmobility 	minSpeed 	0
scalar MyScenario.node[15].veinsmobility 	maxSpeed 	12.504956753443
scalar MyScenario.node[15].veinsmobility 	totalDistance 	392.34133728435
scalar MyScenario.node[15].veinsmobility 	totalCO2Emission 	163.52862913405
scalar MyScenario.node[20].appl 	generatedWSMs 	0
scalar MyScenario.node[20].appl 	receivedWSMs 	0
scalar MyScenario.node[20].appl 	generatedBSMs 	56
scalar MyScenario.node[20].appl 	receivedBSMs 	53
scalar MyScenario.node[20].appl 	generatedWSAs 	0
scalar MyScenario.node[20].appl 	receivedWSAs 	0
scalar MyScenario.node[20].nic.phy80211p 	busyTime 	9.8428571428571e-05
scalar MyScenario.node[20].nic.mac1609_4 	ReceivedUnicastPackets 	0
scalar MyScenario.node[20].nic.mac1609_4 	ReceivedBroadcasts 	53
scalar MyScenario.node[20].nic.mac1609_4 	SentPackets 	56
scalar MyScenario.node[20].nic.mac1609_4 	SNIRLostPackets 	0
scalar MyScenario.node[20].nic.mac1609_4 	RXTXLostPackets 	0
scalar MyScenario.node[20].nic.mac1609_4 	TotalLostPackets 	0
scalar MyScenario.node[20].nic.mac1609_4 	DroppedPacketsInMac 	0
scalar MyScenario.node[20].nic.mac1609_4 	TooLittleTime 	0
scalar MyScenario.node[20].nic.mac1609_4 	TimesIntoBackoff 	56
scalar MyScenario.node[20].nic.mac1609_4 	SlotsBackoff 	92
scalar MyScenario.node[20].nic.mac1609_4 	NumInternalContention 	0
scalar MyScenario.node[20].nic.mac1609_4 	totalBusyTime 	0.011392
scalar MyScenario.node[20].veinsmobility 	startTime 	10844
scalar MyScenario.node[20].veinsmobility 	totalTime 	56
scalar MyScenario.node[20].veinsmobility 	stopTime 	10900
scalar MyScenario.node[20].veinsmobility 	minSpeed 	4.5377028517244e-14
scalar MyScenario.node[20].veinsmobility 	maxSpeed 	20.726262686626
scalar MyScenario.node[20].veinsmobility 	totalDistance 	468.56522117805
scalar MyScenario.node[20].veinsmobility 	totalCO2Emission 	124.04496693489
scalar MyScenario.node[9].appl 	generatedWSMs 	0
scalar MyScenario.node[9].appl 	receivedWSMs 	0
scalar MyScenario.node[9].appl 	generatedBSMs 	100
scalar MyScenario.node[9].appl 	receivedBSMs 	235
scalar MyScenario.node[9].appl 	generatedWSAs 	0
scalar MyScenario.node[9].appl 	receivedWSAs 	0
scalar MyScenario.node[9].nic.phy80211p 	busyTime 	0.0002444
scalar MyScenario.node[9].nic.mac1609_4 	ReceivedUnicastPackets 	0
scalar MyScenario.node[9].nic.mac1609_4 	ReceivedBroadcasts 	235
scalar MyScenario.node[9].nic.mac1609_4 	SentPackets 	100
scalar MyScenario.node[9].nic.mac1609_4 	SNIRLostPackets 	0
scalar MyScenario.node[9].nic.mac1609_4 	RXTXLostPackets 	0
scalar MyScenario.node[9].nic.mac1609_4 	TotalLostPackets 	0
scalar MyScenario.node[9].nic.mac1609_4 	DroppedPacketsInMac 	0
scalar MyScenario.node[9].nic.mac1609_4 	TooLittleTime 	0
scalar MyScenario.node[9].nic.mac1609_4 	TimesIntoBackoff 	100
scalar MyScenario.node[9].nic.mac1609_4 	SlotsBackoff 	145
scalar MyScenario.node[9].nic.mac1609_4 	NumInternalContention 	0
scalar MyScenario.node[9].nic.mac1609_4 	totalBusyTime 	0.03494
scalar MyScenario.node[9].veinsmobility 	startTime 	10800
scalar MyScenario.node[9].veinsmobility 	totalTime 	100
scalar MyScenario.node[9].veinsmobility 	stopTime 	10900
scalar MyScenario.node[9].veinsmobility 	minSpeed 	0
scalar MyScenario.node[9].veinsmobility 	maxSpeed 	13.177549385666
scalar MyScenario.node[9].veinsmobility 	totalDistance 	832.69977134203
scalar MyScenario.node[9].veinsmobility 	totalCO2Emission 	192.31492160593
scalar MyScenario.node[18].appl 	generatedWSMs 	0
scalar MyScenario.node[18].appl 	receivedWSMs 	0
scalar MyScenario.node[18].appl 	generatedBSMs 	70
scalar MyScenario.node[18].appl 	receivedBSMs 	115
scalar MyScenario.node[18].appl 	generatedWSAs 	0
scalar MyScenario.node[18].appl 	receivedWSAs 	0
scalar MyScenario.node[18].nic.phy80211p 	busyTime 	0.00017061340941512
scalar MyScenario.node[18].nic.mac1609_4 	ReceivedUnicastPackets 	0
scalar MyScenario.node[18].nic.mac1609_4 	ReceivedBroadcasts 	115
scalar MyScenario.node[18].nic.mac1609_4 	SentPackets 	70
scalar MyScenario.node[18].nic.mac1609_4 	SNIRLostPackets 	0
scalar MyScenario.node[18].nic.mac1609_4 	RXTXLostPackets 	0
scalar MyScenario.node[18].nic.mac1609_4 	TotalLostPackets 	0
scalar MyScenario.node[18].nic.mac1609_4 	DroppedPacketsInMac 	0
scalar MyScenario.node[18].nic.mac1609_4 	TooLittleTime 	0
scalar MyScenario.node[18].nic.mac1609_4 	TimesIntoBackoff 	70
scalar MyScenario.node[18].nic.mac1609_4 	SlotsBackoff 	120
scalar MyScenario.node[18].nic.mac1609_4 	NumInternalContention 	0
scalar MyScenario.node[18].nic.mac1609_4 	totalBusyTime 	0.01931
scalar MyScenario.node[18].veinsmobility 	startTime 	10829.9
scalar MyScenario.node[18].veinsmobility 	totalTime 	70.1
scalar MyScenario.node[18].veinsmobility 	stopTime 	10900
scalar MyScenario.node[18].veinsmobility 	minSpeed 	4.5361780938653e-14
scalar MyScenario.node[18].veinsmobility 	maxSpeed 	13.777152911431
scalar MyScenario.node[18].veinsmobility 	totalDistance 	288.27730798512
scalar MyScenario.node[18].veinsmobility 	totalCO2Emission 	121.15327857247
scalar MyScenario.node[35].appl 	generatedWSMs 	0
scalar MyScenario.node[35].appl 	receivedWSMs 	0
scalar MyScenario.node[35].appl 	generatedBSMs 	14
scalar MyScenario.node[35].appl 	receivedBSMs 	7
scalar MyScenario.node[35].appl 	generatedWSAs 	0
scalar MyScenario.node[35].appl 	receivedWSAs 	0
scalar MyScenario.node[35].nic.phy80211p 	busyTime 	5.4736842105255e-05
scalar MyScenario.node[35].nic.mac1609_4 	ReceivedUnicastPackets 	0
scalar MyScenario.node[35].nic.mac1609_4 	ReceivedBroadcasts 	7
scalar MyScenario.node[35].nic.mac1609_4 	SentPackets 	14
scalar MyScenario.node[35].nic.mac1609_4 	SNIRLostPackets 	0
scalar MyScenario.node[35].nic.mac1609_4 	RXTXLostPackets 	0
scalar MyScenario.node[35].nic.mac1609_4 	TotalLostPackets 	0
scalar MyScenario.node[35].nic.mac1609_4 	DroppedPacketsInMac 	0
scalar MyScenario.node[35].nic.mac1609_4 	TooLittleTime 	0
scalar MyScenario.node[35].nic.mac1609_4 	TimesIntoBackoff 	14
scalar MyScenario.node[35].nic.mac1609_4 	SlotsBackoff 	29
scalar MyScenario.node[35].nic.mac1609_4 	NumInternalContention 	0
scalar MyScenario.node[35].nic.mac1609_4 	totalBusyTime 	0.002198
scalar MyScenario.node[35].veinsmobility 	startTime 	10886.7
scalar MyScenario.node[35].veinsmobility 	totalTime 	13.3
scalar MyScenario.node[35].veinsmobility 	stopTime 	10900
scalar MyScenario.node[35].veinsmobility 	minSpeed 	12.116548360901
scalar MyScenario.node[35].veinsmobility 	maxSpeed 	14.685829678131
scalar MyScenario.node[35].veinsmobility 	totalDistance 	169.53099556881
scalar MyScenario.node[35].veinsmobility 	totalCO2Emission 	37.658438256776
scalar MyScenario.node[34].appl 	generatedWSMs 	0
scalar MyScenario.node[34].appl 	receivedWSMs 	0
scalar MyScenario.node[34].appl 	generatedBSMs 	13
scalar MyScenario.node[34].appl 	receivedBSMs 	8
scalar MyScenario.node[34].appl 	generatedWSAs 	0
scalar MyScenario.node[34].appl 	receivedWSAs 	0
scalar MyScenario.node[34].nic.phy80211p 	busyTime 	6.1176470588235e-05
scalar MyScenario.node[34].nic.mac1609_4 	ReceivedUnicastPackets 	0
scalar MyScenario.node[34].nic.mac1609_4 	ReceivedBroadcasts 	8
scalar MyScenario.node[34].nic.mac1609_4 	SentPackets 	13
scalar MyScenario.node[34].nic.mac1609_4 	SNIRLostPackets 	0
scalar MyScenario.node[34].nic.mac1609_4 	RXTXLostPackets 	0
scalar MyScenario.node[34].nic.mac1609_4 	TotalLostPackets 	0
scalar MyScenario.node[34].nic.mac1609_4 	DroppedPacketsInMac 	0
scalar MyScenario.node[34].nic.mac1609_4 	TooLittleTime 	0
scalar MyScenario.node[34].nic.mac1609_4 	TimesIntoBackoff 	13
scalar MyScenario.node[34].nic.mac1609_4 	SlotsBackoff 	20
scalar MyScenario.node[34].nic.mac1609_4 	NumInternalContention 	0
scalar MyScenario.node[34].nic.mac1609_4 	totalBusyTime 	0.002197
scalar MyScenario.node[34].veinsmobility 	startTime 	10886.4
scalar MyScenario.node[34].veinsmobility 	totalTime 	13.6
scalar MyScenario.node[34].veinsmobility 	stopTime 	10900
scalar MyScenario.node[34].veinsmobility 	minSpeed 	8.8501552785075
scalar MyScenario.node[34].veinsmobility 	maxSpeed 	15.270488926933
scalar MyScenario.node[34].veinsmobility 	totalDistance 	201.30901989901
scalar MyScenario.node[34].veinsmobility 	totalCO2Emission 	30.090928285477
scalar MyScenario.node[11].appl 	generatedWSMs 	0
scalar MyScenario.node[11].appl 	receivedWSMs 	0
scalar MyScenario.node[11].appl 	generatedBSMs 	100
scalar MyScenario.node[11].appl 	receivedBSMs 	200
scalar MyScenario.node[11].appl 	generatedWSAs 	0
scalar MyScenario.node[11].appl 	receivedWSAs 	0
scalar MyScenario.node[11].nic.phy80211p 	busyTime 	0.000208
scalar MyScenario.node[11].nic.mac1609_4 	ReceivedUnicastPackets 	0
scalar MyScenario.node[11].nic.mac1609_4 	ReceivedBroadcasts 	200
scalar MyScenario.node[11].nic.mac1609_4 	SentPackets 	100
scalar MyScenario.node[11].nic.mac1609_4 	SNIRLostPackets 	0
scalar MyScenario.node[11].nic.mac1609_4 	RXTXLostPackets 	0
scalar MyScenario.node[11].nic.mac1609_4 	TotalLostPackets 	0
scalar MyScenario.node[11].nic.mac1609_4 	DroppedPacketsInMac 	0
scalar MyScenario.node[11].nic.mac1609_4 	TooLittleTime 	0
scalar MyScenario.node[11].nic.mac1609_4 	TimesIntoBackoff 	100
scalar MyScenario.node[11].nic.mac1609_4 	SlotsBackoff 	146
scalar MyScenario.node[11].nic.mac1609_4 	NumInternalContention 	0
scalar MyScenario.node[11].nic.mac1609_4 	totalBusyTime 	0.0313
scalar MyScenario.node[11].veinsmobility 	startTime 	10800
scalar MyScenario.node[11].veinsmobility 	totalTime 	100
scalar MyScenario.node[11].veinsmobility 	stopTime 	10900
scalar MyScenario.node[11].veinsmobility 	minSpeed 	0
scalar MyScenario.node[11].veinsmobility 	maxSpeed 	12.415368695221
scalar MyScenario.node[11].veinsmobility 	totalDistance 	696.99399013139
scalar MyScenario.node[11].veinsmobility 	totalCO2Emission 	203.0012232347
