version 2
run AttackerType8-39-20180205-19:26:37-34289
attr configname AttackerType8
attr datetime 20180205-19:26:37
attr experiment AttackerType8
attr inifile omnetpp_39.ini
attr iterationvars "$start=7, $0=0.2"
attr iterationvarsf start=7,0.2-
attr measurement "$start=7, $0=0.2"
attr network MyScenario
attr processid 34289
attr repetition 4
attr replication #4
attr resultdir results
attr runnumber 39
attr seedset 4
attr start 7
param **.**.**.debug false
param **.**.nic.**.debug false
param **.coreDebug false
param **.debug false
param *.**.nic.mac1609_4.bitrate 6Mbps
param *.**.nic.mac1609_4.txPower 20mW
param *.**.nic.mac1609_4.useServiceChannel false
param *.**.nic.phy80211p.analogueModels "xmldoc(\"config.xml\")"
param *.**.nic.phy80211p.antenna "xmldoc(\"antenna.xml\", \"/root/Antenna[@id='monopole']\")"
param *.**.nic.phy80211p.decider "xmldoc(\"config.xml\")"
param *.**.nic.phy80211p.sensitivity -89dBm
param *.**.nic.phy80211p.thermalNoise -110dBm
param *.**.nic.phy80211p.usePropagationDelay true
param *.**.nic.phy80211p.useThermalNoise true
param *.**.veinsmobility.x 0
param *.**.veinsmobility.y 0
param *.**.veinsmobility.z 1.895
param *.**.veinsmobilityType.debug false
param *.annotations.draw false
param *.connectionManager.drawMaxIntfDist false
param *.connectionManager.maxInterfDist 2600m
param *.connectionManager.sendDirect true
param *.manager.autoShutdown true
param *.manager.configFile "\"dua.static.sumocfg\""
param *.manager.firstStepAt 7h
param *.manager.host "\"localhost\""
param *.manager.launchConfig "xmldoc(\"luxembourg.launchd.xml\")"
param *.manager.roiRects "\"2300,5400-6300,6300\""
param *.manager.seed 4
param *.manager.updateInterval 0.1s
param *.node[*].appl.attackerPosRangeMax 300
param *.node[*].appl.attackerPosRangeMin -300
param *.node[*].appl.attackerProbability 0.2
param *.node[*].appl.attackerType 8
param *.node[*].appl.beaconInterval 1s
param *.node[*].appl.dataOnSch false
param *.node[*].appl.headerLength "80 bit"
param *.node[*].appl.sendBeacons true
param *.node[*].appl.traceGroundTruthJSONFile "\"GroundTruthJSONlog\""
param *.node[*].appl.traceJSONFile "\"JSONlog-\""
param *.node[*].applType "\"AttackerApp\""
param *.obstacles.debug false
param *.obstacles.obstacles "xmldoc(\"config.xml\", \"//AnalogueModel[@type='SimpleObstacleShadowing']/obstacles\")"
param *.playgroundSizeX 13640m
param *.playgroundSizeY 11500m
param *.playgroundSizeZ 50m

scalar _runattrs_ 	start 	7
scalar MyScenario.node[2].appl 	generatedWSMs 	0
scalar MyScenario.node[2].appl 	receivedWSMs 	0
scalar MyScenario.node[2].appl 	generatedBSMs 	0
scalar MyScenario.node[2].appl 	receivedBSMs 	4
scalar MyScenario.node[2].appl 	generatedWSAs 	0
scalar MyScenario.node[2].appl 	receivedWSAs 	0
scalar MyScenario.node[2].nic.phy80211p 	busyTime 	0.00208
scalar MyScenario.node[2].nic.mac1609_4 	ReceivedUnicastPackets 	0
scalar MyScenario.node[2].nic.mac1609_4 	ReceivedBroadcasts 	4
scalar MyScenario.node[2].nic.mac1609_4 	SentPackets 	0
scalar MyScenario.node[2].nic.mac1609_4 	SNIRLostPackets 	2
scalar MyScenario.node[2].nic.mac1609_4 	RXTXLostPackets 	0
scalar MyScenario.node[2].nic.mac1609_4 	TotalLostPackets 	2
scalar MyScenario.node[2].nic.mac1609_4 	DroppedPacketsInMac 	0
scalar MyScenario.node[2].nic.mac1609_4 	TooLittleTime 	0
scalar MyScenario.node[2].nic.mac1609_4 	TimesIntoBackoff 	0
scalar MyScenario.node[2].nic.mac1609_4 	SlotsBackoff 	0
scalar MyScenario.node[2].nic.mac1609_4 	NumInternalContention 	0
scalar MyScenario.node[2].nic.mac1609_4 	totalBusyTime 	0.00052
scalar MyScenario.node[2].veinsmobility 	startTime 	25200
scalar MyScenario.node[2].veinsmobility 	totalTime 	0.2
scalar MyScenario.node[2].veinsmobility 	stopTime 	25200.3
scalar MyScenario.node[2].veinsmobility 	minSpeed 	34.886926972163
scalar MyScenario.node[2].veinsmobility 	maxSpeed 	35.019130355725
scalar MyScenario.node[2].veinsmobility 	totalDistance 	6.9905959688133
scalar MyScenario.node[2].veinsmobility 	totalCO2Emission 	0.0973
scalar MyScenario.node[136].appl 	generatedWSMs 	0
scalar MyScenario.node[136].appl 	receivedWSMs 	0
scalar MyScenario.node[136].appl 	generatedBSMs 	0
scalar MyScenario.node[136].appl 	receivedBSMs 	0
scalar MyScenario.node[136].appl 	generatedWSAs 	0
scalar MyScenario.node[136].appl 	receivedWSAs 	0
scalar MyScenario.node[136].nic.phy80211p 	busyTime 	0
scalar MyScenario.node[136].nic.mac1609_4 	ReceivedUnicastPackets 	0
scalar MyScenario.node[136].nic.mac1609_4 	ReceivedBroadcasts 	0
scalar MyScenario.node[136].nic.mac1609_4 	SentPackets 	0
scalar MyScenario.node[136].nic.mac1609_4 	SNIRLostPackets 	0
scalar MyScenario.node[136].nic.mac1609_4 	RXTXLostPackets 	0
scalar MyScenario.node[136].nic.mac1609_4 	TotalLostPackets 	0
scalar MyScenario.node[136].nic.mac1609_4 	DroppedPacketsInMac 	0
scalar MyScenario.node[136].nic.mac1609_4 	TooLittleTime 	0
scalar MyScenario.node[136].nic.mac1609_4 	TimesIntoBackoff 	0
scalar MyScenario.node[136].nic.mac1609_4 	SlotsBackoff 	0
scalar MyScenario.node[136].nic.mac1609_4 	NumInternalContention 	0
scalar MyScenario.node[136].nic.mac1609_4 	totalBusyTime 	0
scalar MyScenario.node[136].veinsmobility 	startTime 	25200
scalar MyScenario.node[136].veinsmobility 	totalTime 	0.3
scalar MyScenario.node[136].veinsmobility 	stopTime 	25200.4
scalar MyScenario.node[136].veinsmobility 	minSpeed 	13.817638069849
scalar MyScenario.node[136].veinsmobility 	maxSpeed 	13.870352203061
scalar MyScenario.node[136].veinsmobility 	totalDistance 	4.154692225558
scalar MyScenario.node[136].veinsmobility 	totalCO2Emission 	0.43391356095036
scalar MyScenario.node[16].appl 	generatedWSMs 	0
scalar MyScenario.node[16].appl 	receivedWSMs 	0
scalar MyScenario.node[16].appl 	generatedBSMs 	1
scalar MyScenario.node[16].appl 	receivedBSMs 	17
scalar MyScenario.node[16].appl 	generatedWSAs 	0
scalar MyScenario.node[16].appl 	receivedWSAs 	0
scalar MyScenario.node[16].nic.phy80211p 	busyTime 	0.0028228571428571
scalar MyScenario.node[16].nic.mac1609_4 	ReceivedUnicastPackets 	0
scalar MyScenario.node[16].nic.mac1609_4 	ReceivedBroadcasts 	17
scalar MyScenario.node[16].nic.mac1609_4 	SentPackets 	1
scalar MyScenario.node[16].nic.mac1609_4 	SNIRLostPackets 	2
scalar MyScenario.node[16].nic.mac1609_4 	RXTXLostPackets 	0
scalar MyScenario.node[16].nic.mac1609_4 	TotalLostPackets 	2
scalar MyScenario.node[16].nic.mac1609_4 	DroppedPacketsInMac 	0
scalar MyScenario.node[16].nic.mac1609_4 	TooLittleTime 	0
scalar MyScenario.node[16].nic.mac1609_4 	TimesIntoBackoff 	1
scalar MyScenario.node[16].nic.mac1609_4 	SlotsBackoff 	0
scalar MyScenario.node[16].nic.mac1609_4 	NumInternalContention 	0
scalar MyScenario.node[16].nic.mac1609_4 	totalBusyTime 	0.001977
scalar MyScenario.node[16].veinsmobility 	startTime 	25200
scalar MyScenario.node[16].veinsmobility 	totalTime 	0.6
scalar MyScenario.node[16].veinsmobility 	stopTime 	25200.7
scalar MyScenario.node[16].veinsmobility 	minSpeed 	37.844148304098
scalar MyScenario.node[16].veinsmobility 	maxSpeed 	38.114671187491
scalar MyScenario.node[16].veinsmobility 	totalDistance 	22.819474397305
scalar MyScenario.node[16].veinsmobility 	totalCO2Emission 	2.9973698885855
scalar MyScenario.node[14].appl 	generatedWSMs 	0
scalar MyScenario.node[14].appl 	receivedWSMs 	0
scalar MyScenario.node[14].appl 	generatedBSMs 	2
scalar MyScenario.node[14].appl 	receivedBSMs 	47
scalar MyScenario.node[14].appl 	generatedWSAs 	0
scalar MyScenario.node[14].appl 	receivedWSAs 	0
scalar MyScenario.node[14].nic.phy80211p 	busyTime 	0.003185
scalar MyScenario.node[14].nic.mac1609_4 	ReceivedUnicastPackets 	0
scalar MyScenario.node[14].nic.mac1609_4 	ReceivedBroadcasts 	47
scalar MyScenario.node[14].nic.mac1609_4 	SentPackets 	2
scalar MyScenario.node[14].nic.mac1609_4 	SNIRLostPackets 	2
scalar MyScenario.node[14].nic.mac1609_4 	RXTXLostPackets 	0
scalar MyScenario.node[14].nic.mac1609_4 	TotalLostPackets 	2
scalar MyScenario.node[14].nic.mac1609_4 	DroppedPacketsInMac 	0
scalar MyScenario.node[14].nic.mac1609_4 	TooLittleTime 	0
scalar MyScenario.node[14].nic.mac1609_4 	TimesIntoBackoff 	2
scalar MyScenario.node[14].nic.mac1609_4 	SlotsBackoff 	3
scalar MyScenario.node[14].nic.mac1609_4 	NumInternalContention 	0
scalar MyScenario.node[14].nic.mac1609_4 	totalBusyTime 	0.005202
scalar MyScenario.node[14].veinsmobility 	startTime 	25200
scalar MyScenario.node[14].veinsmobility 	totalTime 	1.5
scalar MyScenario.node[14].veinsmobility 	stopTime 	25201.6
scalar MyScenario.node[14].veinsmobility 	minSpeed 	25.48014516842
scalar MyScenario.node[14].veinsmobility 	maxSpeed 	25.601723417022
scalar MyScenario.node[14].veinsmobility 	totalDistance 	38.274081964833
scalar MyScenario.node[14].veinsmobility 	totalCO2Emission 	5.705357426323
scalar MyScenario.node[4].appl 	generatedWSMs 	0
scalar MyScenario.node[4].appl 	receivedWSMs 	0
scalar MyScenario.node[4].appl 	generatedBSMs 	2
scalar MyScenario.node[4].appl 	receivedBSMs 	33
scalar MyScenario.node[4].appl 	generatedWSAs 	0
scalar MyScenario.node[4].appl 	receivedWSAs 	0
scalar MyScenario.node[4].nic.phy80211p 	busyTime 	0.0015826086956522
scalar MyScenario.node[4].nic.mac1609_4 	ReceivedUnicastPackets 	0
scalar MyScenario.node[4].nic.mac1609_4 	ReceivedBroadcasts 	33
scalar MyScenario.node[4].nic.mac1609_4 	SentPackets 	2
scalar MyScenario.node[4].nic.mac1609_4 	SNIRLostPackets 	2
scalar MyScenario.node[4].nic.mac1609_4 	RXTXLostPackets 	0
scalar MyScenario.node[4].nic.mac1609_4 	TotalLostPackets 	2
scalar MyScenario.node[4].nic.mac1609_4 	DroppedPacketsInMac 	0
scalar MyScenario.node[4].nic.mac1609_4 	TooLittleTime 	0
scalar MyScenario.node[4].nic.mac1609_4 	TimesIntoBackoff 	2
scalar MyScenario.node[4].nic.mac1609_4 	SlotsBackoff 	4
scalar MyScenario.node[4].nic.mac1609_4 	NumInternalContention 	0
scalar MyScenario.node[4].nic.mac1609_4 	totalBusyTime 	0.003751367877
scalar MyScenario.node[4].veinsmobility 	startTime 	25200
scalar MyScenario.node[4].veinsmobility 	totalTime 	2.2
scalar MyScenario.node[4].veinsmobility 	stopTime 	25202.3
scalar MyScenario.node[4].veinsmobility 	minSpeed 	29.88303983381
scalar MyScenario.node[4].veinsmobility 	maxSpeed 	29.999314509127
scalar MyScenario.node[4].veinsmobility 	totalDistance 	65.796762890723
scalar MyScenario.node[4].veinsmobility 	totalCO2Emission 	10.522376890598
scalar MyScenario.node[6].appl 	generatedWSMs 	0
scalar MyScenario.node[6].appl 	receivedWSMs 	0
scalar MyScenario.node[6].appl 	generatedBSMs 	3
scalar MyScenario.node[6].appl 	receivedBSMs 	80
scalar MyScenario.node[6].appl 	generatedWSAs 	0
scalar MyScenario.node[6].appl 	receivedWSAs 	0
scalar MyScenario.node[6].nic.phy80211p 	busyTime 	0.0029406896551724
scalar MyScenario.node[6].nic.mac1609_4 	ReceivedUnicastPackets 	0
scalar MyScenario.node[6].nic.mac1609_4 	ReceivedBroadcasts 	80
scalar MyScenario.node[6].nic.mac1609_4 	SentPackets 	3
scalar MyScenario.node[6].nic.mac1609_4 	SNIRLostPackets 	2
scalar MyScenario.node[6].nic.mac1609_4 	RXTXLostPackets 	0
scalar MyScenario.node[6].nic.mac1609_4 	TotalLostPackets 	2
scalar MyScenario.node[6].nic.mac1609_4 	DroppedPacketsInMac 	0
scalar MyScenario.node[6].nic.mac1609_4 	TooLittleTime 	0
scalar MyScenario.node[6].nic.mac1609_4 	TimesIntoBackoff 	3
scalar MyScenario.node[6].nic.mac1609_4 	SlotsBackoff 	5
scalar MyScenario.node[6].nic.mac1609_4 	NumInternalContention 	0
scalar MyScenario.node[6].nic.mac1609_4 	totalBusyTime 	0.008739
scalar MyScenario.node[6].veinsmobility 	startTime 	25200
scalar MyScenario.node[6].veinsmobility 	totalTime 	2.8
scalar MyScenario.node[6].veinsmobility 	stopTime 	25202.9
scalar MyScenario.node[6].veinsmobility 	minSpeed 	25.76506886102
scalar MyScenario.node[6].veinsmobility 	maxSpeed 	26.048676612124
scalar MyScenario.node[6].veinsmobility 	totalDistance 	72.539666444783
scalar MyScenario.node[6].veinsmobility 	totalCO2Emission 	10.74968465626
scalar MyScenario.node[180].appl 	generatedWSMs 	0
scalar MyScenario.node[180].appl 	receivedWSMs 	0
scalar MyScenario.node[180].appl 	generatedBSMs 	3
scalar MyScenario.node[180].appl 	receivedBSMs 	61
scalar MyScenario.node[180].appl 	generatedWSAs 	0
scalar MyScenario.node[180].appl 	receivedWSAs 	0
scalar MyScenario.node[180].nic.phy80211p 	busyTime 	0.0019825
scalar MyScenario.node[180].nic.mac1609_4 	ReceivedUnicastPackets 	0
scalar MyScenario.node[180].nic.mac1609_4 	ReceivedBroadcasts 	61
scalar MyScenario.node[180].nic.mac1609_4 	SentPackets 	3
scalar MyScenario.node[180].nic.mac1609_4 	SNIRLostPackets 	0
scalar MyScenario.node[180].nic.mac1609_4 	RXTXLostPackets 	0
scalar MyScenario.node[180].nic.mac1609_4 	TotalLostPackets 	0
scalar MyScenario.node[180].nic.mac1609_4 	DroppedPacketsInMac 	0
scalar MyScenario.node[180].nic.mac1609_4 	TooLittleTime 	0
scalar MyScenario.node[180].nic.mac1609_4 	TimesIntoBackoff 	3
scalar MyScenario.node[180].nic.mac1609_4 	SlotsBackoff 	3
scalar MyScenario.node[180].nic.mac1609_4 	NumInternalContention 	0
scalar MyScenario.node[180].nic.mac1609_4 	totalBusyTime 	0.006659
scalar MyScenario.node[180].veinsmobility 	startTime 	25200
scalar MyScenario.node[180].veinsmobility 	totalTime 	3.1
scalar MyScenario.node[180].veinsmobility 	stopTime 	25203.2
scalar MyScenario.node[180].veinsmobility 	minSpeed 	0.25361327331304
scalar MyScenario.node[180].veinsmobility 	maxSpeed 	6.5322503670633
scalar MyScenario.node[180].veinsmobility 	totalDistance 	10.618681490793
scalar MyScenario.node[180].veinsmobility 	totalCO2Emission 	9.1581062969507
scalar MyScenario.node[5].appl 	generatedWSMs 	0
scalar MyScenario.node[5].appl 	receivedWSMs 	0
scalar MyScenario.node[5].appl 	generatedBSMs 	4
scalar MyScenario.node[5].appl 	receivedBSMs 	48
scalar MyScenario.node[5].appl 	generatedWSAs 	0
scalar MyScenario.node[5].appl 	receivedWSAs 	0
scalar MyScenario.node[5].nic.phy80211p 	busyTime 	0.0014857142857143
scalar MyScenario.node[5].nic.mac1609_4 	ReceivedUnicastPackets 	0
scalar MyScenario.node[5].nic.mac1609_4 	ReceivedBroadcasts 	48
scalar MyScenario.node[5].nic.mac1609_4 	SentPackets 	4
scalar MyScenario.node[5].nic.mac1609_4 	SNIRLostPackets 	2
scalar MyScenario.node[5].nic.mac1609_4 	RXTXLostPackets 	0
scalar MyScenario.node[5].nic.mac1609_4 	TotalLostPackets 	2
scalar MyScenario.node[5].nic.mac1609_4 	DroppedPacketsInMac 	0
scalar MyScenario.node[5].nic.mac1609_4 	TooLittleTime 	0
scalar MyScenario.node[5].nic.mac1609_4 	TimesIntoBackoff 	4
scalar MyScenario.node[5].nic.mac1609_4 	SlotsBackoff 	4
scalar MyScenario.node[5].nic.mac1609_4 	NumInternalContention 	0
scalar MyScenario.node[5].nic.mac1609_4 	totalBusyTime 	0.005516
scalar MyScenario.node[5].veinsmobility 	startTime 	25200
scalar MyScenario.node[5].veinsmobility 	totalTime 	3.4
scalar MyScenario.node[5].veinsmobility 	stopTime 	25203.5
scalar MyScenario.node[5].veinsmobility 	minSpeed 	29.844142075844
scalar MyScenario.node[5].veinsmobility 	maxSpeed 	30.064938499042
scalar MyScenario.node[5].veinsmobility 	totalDistance 	101.67940854489
scalar MyScenario.node[5].veinsmobility 	totalCO2Emission 	19.329813613295
scalar MyScenario.node[120].appl 	generatedWSMs 	0
scalar MyScenario.node[120].appl 	receivedWSMs 	0
scalar MyScenario.node[120].appl 	generatedBSMs 	4
scalar MyScenario.node[120].appl 	receivedBSMs 	124
scalar MyScenario.node[120].appl 	generatedWSAs 	0
scalar MyScenario.node[120].appl 	receivedWSAs 	0
scalar MyScenario.node[120].nic.phy80211p 	busyTime 	0.0031453658536585
scalar MyScenario.node[120].nic.mac1609_4 	ReceivedUnicastPackets 	0
scalar MyScenario.node[120].nic.mac1609_4 	ReceivedBroadcasts 	124
scalar MyScenario.node[120].nic.mac1609_4 	SentPackets 	4
scalar MyScenario.node[120].nic.mac1609_4 	SNIRLostPackets 	0
scalar MyScenario.node[120].nic.mac1609_4 	RXTXLostPackets 	0
scalar MyScenario.node[120].nic.mac1609_4 	TotalLostPackets 	0
scalar MyScenario.node[120].nic.mac1609_4 	DroppedPacketsInMac 	0
scalar MyScenario.node[120].nic.mac1609_4 	TooLittleTime 	0
scalar MyScenario.node[120].nic.mac1609_4 	TimesIntoBackoff 	4
scalar MyScenario.node[120].nic.mac1609_4 	SlotsBackoff 	8
scalar MyScenario.node[120].nic.mac1609_4 	NumInternalContention 	0
scalar MyScenario.node[120].nic.mac1609_4 	totalBusyTime 	0.013316
scalar MyScenario.node[120].veinsmobility 	startTime 	25200
scalar MyScenario.node[120].veinsmobility 	totalTime 	4
scalar MyScenario.node[120].veinsmobility 	stopTime 	25204.1
scalar MyScenario.node[120].veinsmobility 	minSpeed 	25.277277295597
scalar MyScenario.node[120].veinsmobility 	maxSpeed 	26.577814987762
scalar MyScenario.node[120].veinsmobility 	totalDistance 	101.82994575475
scalar MyScenario.node[120].veinsmobility 	totalCO2Emission 	25.334658882284
scalar MyScenario.node[0].appl 	generatedWSMs 	0
scalar MyScenario.node[0].appl 	receivedWSMs 	0
scalar MyScenario.node[0].appl 	generatedBSMs 	4
scalar MyScenario.node[0].appl 	receivedBSMs 	74
scalar MyScenario.node[0].appl 	generatedWSAs 	0
scalar MyScenario.node[0].appl 	receivedWSAs 	0
scalar MyScenario.node[0].nic.phy80211p 	busyTime 	0.0016595744680851
scalar MyScenario.node[0].nic.mac1609_4 	ReceivedUnicastPackets 	0
scalar MyScenario.node[0].nic.mac1609_4 	ReceivedBroadcasts 	74
scalar MyScenario.node[0].nic.mac1609_4 	SentPackets 	4
scalar MyScenario.node[0].nic.mac1609_4 	SNIRLostPackets 	1
scalar MyScenario.node[0].nic.mac1609_4 	RXTXLostPackets 	0
scalar MyScenario.node[0].nic.mac1609_4 	TotalLostPackets 	1
scalar MyScenario.node[0].nic.mac1609_4 	DroppedPacketsInMac 	0
scalar MyScenario.node[0].nic.mac1609_4 	TooLittleTime 	0
scalar MyScenario.node[0].nic.mac1609_4 	TimesIntoBackoff 	4
scalar MyScenario.node[0].nic.mac1609_4 	SlotsBackoff 	4
scalar MyScenario.node[0].nic.mac1609_4 	NumInternalContention 	0
scalar MyScenario.node[0].nic.mac1609_4 	totalBusyTime 	0.008116
scalar MyScenario.node[0].veinsmobility 	startTime 	25200
scalar MyScenario.node[0].veinsmobility 	totalTime 	4.6
scalar MyScenario.node[0].veinsmobility 	stopTime 	25204.7
scalar MyScenario.node[0].veinsmobility 	minSpeed 	29.817010914912
scalar MyScenario.node[0].veinsmobility 	maxSpeed 	30.116422189085
scalar MyScenario.node[0].veinsmobility 	totalDistance 	137.63819676728
scalar MyScenario.node[0].veinsmobility 	totalCO2Emission 	26.418363945589
scalar MyScenario.node[50].appl 	generatedWSMs 	0
scalar MyScenario.node[50].appl 	receivedWSMs 	0
scalar MyScenario.node[50].appl 	generatedBSMs 	5
scalar MyScenario.node[50].appl 	receivedBSMs 	123
scalar MyScenario.node[50].appl 	generatedWSAs 	0
scalar MyScenario.node[50].appl 	receivedWSAs 	0
scalar MyScenario.node[50].nic.phy80211p 	busyTime 	0.0026530612244898
scalar MyScenario.node[50].nic.mac1609_4 	ReceivedUnicastPackets 	0
scalar MyScenario.node[50].nic.mac1609_4 	ReceivedBroadcasts 	123
scalar MyScenario.node[50].nic.mac1609_4 	SentPackets 	5
scalar MyScenario.node[50].nic.mac1609_4 	SNIRLostPackets 	2
scalar MyScenario.node[50].nic.mac1609_4 	RXTXLostPackets 	0
scalar MyScenario.node[50].nic.mac1609_4 	TotalLostPackets 	2
scalar MyScenario.node[50].nic.mac1609_4 	DroppedPacketsInMac 	0
scalar MyScenario.node[50].nic.mac1609_4 	TooLittleTime 	0
scalar MyScenario.node[50].nic.mac1609_4 	TimesIntoBackoff 	5
scalar MyScenario.node[50].nic.mac1609_4 	SlotsBackoff 	5
scalar MyScenario.node[50].nic.mac1609_4 	NumInternalContention 	0
scalar MyScenario.node[50].nic.mac1609_4 	totalBusyTime 	0.013421
scalar MyScenario.node[50].veinsmobility 	startTime 	25200
scalar MyScenario.node[50].veinsmobility 	totalTime 	4.8
scalar MyScenario.node[50].veinsmobility 	stopTime 	25204.9
scalar MyScenario.node[50].veinsmobility 	minSpeed 	22.017629711686
scalar MyScenario.node[50].veinsmobility 	maxSpeed 	25.916094534028
scalar MyScenario.node[50].veinsmobility 	totalDistance 	112.02590673983
scalar MyScenario.node[50].veinsmobility 	totalCO2Emission 	40.87502252477
scalar MyScenario.node[142].appl 	generatedWSMs 	0
scalar MyScenario.node[142].appl 	receivedWSMs 	0
scalar MyScenario.node[142].appl 	generatedBSMs 	6
scalar MyScenario.node[142].appl 	receivedBSMs 	94
scalar MyScenario.node[142].appl 	generatedWSAs 	0
scalar MyScenario.node[142].appl 	receivedWSAs 	0
scalar MyScenario.node[142].nic.phy80211p 	busyTime 	0.0016813333333333
scalar MyScenario.node[142].nic.mac1609_4 	ReceivedUnicastPackets 	0
scalar MyScenario.node[142].nic.mac1609_4 	ReceivedBroadcasts 	94
scalar MyScenario.node[142].nic.mac1609_4 	SentPackets 	6
scalar MyScenario.node[142].nic.mac1609_4 	SNIRLostPackets 	3
scalar MyScenario.node[142].nic.mac1609_4 	RXTXLostPackets 	0
scalar MyScenario.node[142].nic.mac1609_4 	TotalLostPackets 	3
scalar MyScenario.node[142].nic.mac1609_4 	DroppedPacketsInMac 	0
scalar MyScenario.node[142].nic.mac1609_4 	TooLittleTime 	0
scalar MyScenario.node[142].nic.mac1609_4 	TimesIntoBackoff 	6
scalar MyScenario.node[142].nic.mac1609_4 	SlotsBackoff 	14
scalar MyScenario.node[142].nic.mac1609_4 	NumInternalContention 	0
scalar MyScenario.node[142].nic.mac1609_4 	totalBusyTime 	0.01051
scalar MyScenario.node[142].veinsmobility 	startTime 	25200
scalar MyScenario.node[142].veinsmobility 	totalTime 	5.9
scalar MyScenario.node[142].veinsmobility 	stopTime 	25206
scalar MyScenario.node[142].veinsmobility 	minSpeed 	29.824172929526
scalar MyScenario.node[142].veinsmobility 	maxSpeed 	30.127967877668
scalar MyScenario.node[142].veinsmobility 	totalDistance 	176.55604365595
scalar MyScenario.node[142].veinsmobility 	totalCO2Emission 	34.567125682461
scalar MyScenario.node[25].appl 	generatedWSMs 	0
scalar MyScenario.node[25].appl 	receivedWSMs 	0
scalar MyScenario.node[25].appl 	generatedBSMs 	7
scalar MyScenario.node[25].appl 	receivedBSMs 	32
scalar MyScenario.node[25].appl 	generatedWSAs 	0
scalar MyScenario.node[25].appl 	receivedWSAs 	0
scalar MyScenario.node[25].nic.phy80211p 	busyTime 	0.0004558904109589
scalar MyScenario.node[25].nic.mac1609_4 	ReceivedUnicastPackets 	0
scalar MyScenario.node[25].nic.mac1609_4 	ReceivedBroadcasts 	32
scalar MyScenario.node[25].nic.mac1609_4 	SentPackets 	7
scalar MyScenario.node[25].nic.mac1609_4 	SNIRLostPackets 	0
scalar MyScenario.node[25].nic.mac1609_4 	RXTXLostPackets 	0
scalar MyScenario.node[25].nic.mac1609_4 	TotalLostPackets 	0
scalar MyScenario.node[25].nic.mac1609_4 	DroppedPacketsInMac 	0
scalar MyScenario.node[25].nic.mac1609_4 	TooLittleTime 	0
scalar MyScenario.node[25].nic.mac1609_4 	TimesIntoBackoff 	7
scalar MyScenario.node[25].nic.mac1609_4 	SlotsBackoff 	10
scalar MyScenario.node[25].nic.mac1609_4 	NumInternalContention 	0
scalar MyScenario.node[25].nic.mac1609_4 	totalBusyTime 	0.004063
scalar MyScenario.node[25].veinsmobility 	startTime 	25200
scalar MyScenario.node[25].veinsmobility 	totalTime 	7.2
scalar MyScenario.node[25].veinsmobility 	stopTime 	25207.3
scalar MyScenario.node[25].veinsmobility 	minSpeed 	0.27689707433851
scalar MyScenario.node[25].veinsmobility 	maxSpeed 	15.095216121688
scalar MyScenario.node[25].veinsmobility 	totalDistance 	55.746372044039
scalar MyScenario.node[25].veinsmobility 	totalCO2Emission 	38.985602400755
scalar MyScenario.node[58].appl 	generatedWSMs 	0
scalar MyScenario.node[58].appl 	receivedWSMs 	0
scalar MyScenario.node[58].appl 	generatedBSMs 	8
scalar MyScenario.node[58].appl 	receivedBSMs 	39
scalar MyScenario.node[58].appl 	generatedWSAs 	0
scalar MyScenario.node[58].appl 	receivedWSAs 	0
scalar MyScenario.node[58].nic.phy80211p 	busyTime 	0.000507
scalar MyScenario.node[58].nic.mac1609_4 	ReceivedUnicastPackets 	0
scalar MyScenario.node[58].nic.mac1609_4 	ReceivedBroadcasts 	39
scalar MyScenario.node[58].nic.mac1609_4 	SentPackets 	8
scalar MyScenario.node[58].nic.mac1609_4 	SNIRLostPackets 	0
scalar MyScenario.node[58].nic.mac1609_4 	RXTXLostPackets 	0
scalar MyScenario.node[58].nic.mac1609_4 	TotalLostPackets 	0
scalar MyScenario.node[58].nic.mac1609_4 	DroppedPacketsInMac 	0
scalar MyScenario.node[58].nic.mac1609_4 	TooLittleTime 	0
scalar MyScenario.node[58].nic.mac1609_4 	TimesIntoBackoff 	8
scalar MyScenario.node[58].nic.mac1609_4 	SlotsBackoff 	12
scalar MyScenario.node[58].nic.mac1609_4 	NumInternalContention 	0
scalar MyScenario.node[58].nic.mac1609_4 	totalBusyTime 	0.004896
scalar MyScenario.node[58].veinsmobility 	startTime 	25200
scalar MyScenario.node[58].veinsmobility 	totalTime 	7.9
scalar MyScenario.node[58].veinsmobility 	stopTime 	25208
scalar MyScenario.node[58].veinsmobility 	minSpeed 	0.25818442304665
scalar MyScenario.node[58].veinsmobility 	maxSpeed 	10.965303310755
scalar MyScenario.node[58].veinsmobility 	totalDistance 	57.055527634613
scalar MyScenario.node[58].veinsmobility 	totalCO2Emission 	27.130560581494
scalar MyScenario.node[105].appl 	generatedWSMs 	0
scalar MyScenario.node[105].appl 	receivedWSMs 	0
scalar MyScenario.node[105].appl 	generatedBSMs 	9
scalar MyScenario.node[105].appl 	receivedBSMs 	62
scalar MyScenario.node[105].appl 	generatedWSAs 	0
scalar MyScenario.node[105].appl 	receivedWSAs 	0
scalar MyScenario.node[105].nic.phy80211p 	busyTime 	0.00070857142857143
scalar MyScenario.node[105].nic.mac1609_4 	ReceivedUnicastPackets 	0
scalar MyScenario.node[105].nic.mac1609_4 	ReceivedBroadcasts 	62
scalar MyScenario.node[105].nic.mac1609_4 	SentPackets 	9
scalar MyScenario.node[105].nic.mac1609_4 	SNIRLostPackets 	0
scalar MyScenario.node[105].nic.mac1609_4 	RXTXLostPackets 	0
scalar MyScenario.node[105].nic.mac1609_4 	TotalLostPackets 	0
scalar MyScenario.node[105].nic.mac1609_4 	DroppedPacketsInMac 	0
scalar MyScenario.node[105].nic.mac1609_4 	TooLittleTime 	0
scalar MyScenario.node[105].nic.mac1609_4 	TimesIntoBackoff 	9
scalar MyScenario.node[105].nic.mac1609_4 	SlotsBackoff 	7
scalar MyScenario.node[105].nic.mac1609_4 	NumInternalContention 	0
scalar MyScenario.node[105].nic.mac1609_4 	totalBusyTime 	0.007393
scalar MyScenario.node[105].veinsmobility 	startTime 	25200
scalar MyScenario.node[105].veinsmobility 	totalTime 	9
scalar MyScenario.node[105].veinsmobility 	stopTime 	25209.1
scalar MyScenario.node[105].veinsmobility 	minSpeed 	0.25699812503792
scalar MyScenario.node[105].veinsmobility 	maxSpeed 	15.435706854069
scalar MyScenario.node[105].veinsmobility 	totalDistance 	82.142410180702
scalar MyScenario.node[105].veinsmobility 	totalCO2Emission 	44.221154187568
scalar MyScenario.node[15].appl 	generatedWSMs 	0
scalar MyScenario.node[15].appl 	receivedWSMs 	0
scalar MyScenario.node[15].appl 	generatedBSMs 	11
scalar MyScenario.node[15].appl 	receivedBSMs 	326
scalar MyScenario.node[15].appl 	generatedWSAs 	0
scalar MyScenario.node[15].appl 	receivedWSAs 	0
scalar MyScenario.node[15].nic.phy80211p 	busyTime 	0.0032685714285714
scalar MyScenario.node[15].nic.mac1609_4 	ReceivedUnicastPackets 	0
scalar MyScenario.node[15].nic.mac1609_4 	ReceivedBroadcasts 	326
scalar MyScenario.node[15].nic.mac1609_4 	SentPackets 	11
scalar MyScenario.node[15].nic.mac1609_4 	SNIRLostPackets 	4
scalar MyScenario.node[15].nic.mac1609_4 	RXTXLostPackets 	0
scalar MyScenario.node[15].nic.mac1609_4 	TotalLostPackets 	4
scalar MyScenario.node[15].nic.mac1609_4 	DroppedPacketsInMac 	0
scalar MyScenario.node[15].nic.mac1609_4 	TooLittleTime 	0
scalar MyScenario.node[15].nic.mac1609_4 	TimesIntoBackoff 	11
scalar MyScenario.node[15].nic.mac1609_4 	SlotsBackoff 	20
scalar MyScenario.node[15].nic.mac1609_4 	NumInternalContention 	0
scalar MyScenario.node[15].nic.mac1609_4 	totalBusyTime 	0.035267
scalar MyScenario.node[15].veinsmobility 	startTime 	25200
scalar MyScenario.node[15].veinsmobility 	totalTime 	10.4
scalar MyScenario.node[15].veinsmobility 	stopTime 	25210.5
scalar MyScenario.node[15].veinsmobility 	minSpeed 	33.652011924216
scalar MyScenario.node[15].veinsmobility 	maxSpeed 	33.79130520731
scalar MyScenario.node[15].veinsmobility 	totalDistance 	351.06859928792
scalar MyScenario.node[15].veinsmobility 	totalCO2Emission 	65.503217230396
scalar MyScenario.node[37].appl 	generatedWSMs 	0
scalar MyScenario.node[37].appl 	receivedWSMs 	0
scalar MyScenario.node[37].appl 	generatedBSMs 	10
scalar MyScenario.node[37].appl 	receivedBSMs 	90
scalar MyScenario.node[37].appl 	generatedWSAs 	0
scalar MyScenario.node[37].appl 	receivedWSAs 	0
scalar MyScenario.node[37].nic.phy80211p 	busyTime 	0.00089142857142857
scalar MyScenario.node[37].nic.mac1609_4 	ReceivedUnicastPackets 	0
scalar MyScenario.node[37].nic.mac1609_4 	ReceivedBroadcasts 	90
scalar MyScenario.node[37].nic.mac1609_4 	SentPackets 	10
scalar MyScenario.node[37].nic.mac1609_4 	SNIRLostPackets 	0
scalar MyScenario.node[37].nic.mac1609_4 	RXTXLostPackets 	0
scalar MyScenario.node[37].nic.mac1609_4 	TotalLostPackets 	0
scalar MyScenario.node[37].nic.mac1609_4 	DroppedPacketsInMac 	0
scalar MyScenario.node[37].nic.mac1609_4 	TooLittleTime 	0
scalar MyScenario.node[37].nic.mac1609_4 	TimesIntoBackoff 	10
scalar MyScenario.node[37].nic.mac1609_4 	SlotsBackoff 	11
scalar MyScenario.node[37].nic.mac1609_4 	NumInternalContention 	0
scalar MyScenario.node[37].nic.mac1609_4 	totalBusyTime 	0.01041
scalar MyScenario.node[37].veinsmobility 	startTime 	25200
scalar MyScenario.node[37].veinsmobility 	totalTime 	10.4
scalar MyScenario.node[37].veinsmobility 	stopTime 	25210.5
scalar MyScenario.node[37].veinsmobility 	minSpeed 	0.25639744649273
scalar MyScenario.node[37].veinsmobility 	maxSpeed 	15.18653850978
scalar MyScenario.node[37].veinsmobility 	totalDistance 	102.46395515438
scalar MyScenario.node[37].veinsmobility 	totalCO2Emission 	46.821684204218
scalar MyScenario.node[102].appl 	generatedWSMs 	0
scalar MyScenario.node[102].appl 	receivedWSMs 	0
scalar MyScenario.node[102].appl 	generatedBSMs 	10
scalar MyScenario.node[102].appl 	receivedBSMs 	72
scalar MyScenario.node[102].appl 	generatedWSAs 	0
scalar MyScenario.node[102].appl 	receivedWSAs 	0
scalar MyScenario.node[102].nic.phy80211p 	busyTime 	0.00070641509433962
scalar MyScenario.node[102].nic.mac1609_4 	ReceivedUnicastPackets 	0
scalar MyScenario.node[102].nic.mac1609_4 	ReceivedBroadcasts 	72
scalar MyScenario.node[102].nic.mac1609_4 	SentPackets 	10
scalar MyScenario.node[102].nic.mac1609_4 	SNIRLostPackets 	0
scalar MyScenario.node[102].nic.mac1609_4 	RXTXLostPackets 	0
scalar MyScenario.node[102].nic.mac1609_4 	TotalLostPackets 	0
scalar MyScenario.node[102].nic.mac1609_4 	DroppedPacketsInMac 	0
scalar MyScenario.node[102].nic.mac1609_4 	TooLittleTime 	0
scalar MyScenario.node[102].nic.mac1609_4 	TimesIntoBackoff 	10
scalar MyScenario.node[102].nic.mac1609_4 	SlotsBackoff 	16
scalar MyScenario.node[102].nic.mac1609_4 	NumInternalContention 	0
scalar MyScenario.node[102].nic.mac1609_4 	totalBusyTime 	0.008538
scalar MyScenario.node[102].veinsmobility 	startTime 	25200
scalar MyScenario.node[102].veinsmobility 	totalTime 	10.5
scalar MyScenario.node[102].veinsmobility 	stopTime 	25210.6
scalar MyScenario.node[102].veinsmobility 	minSpeed 	4.5873931657895e-14
scalar MyScenario.node[102].veinsmobility 	maxSpeed 	13.788708409931
scalar MyScenario.node[102].veinsmobility 	totalDistance 	87.843701361651
scalar MyScenario.node[102].veinsmobility 	totalCO2Emission 	40.631118923154
scalar MyScenario.node[76].appl 	generatedWSMs 	0
scalar MyScenario.node[76].appl 	receivedWSMs 	0
scalar MyScenario.node[76].appl 	generatedBSMs 	11
scalar MyScenario.node[76].appl 	receivedBSMs 	38
scalar MyScenario.node[76].appl 	generatedWSAs 	0
scalar MyScenario.node[76].appl 	receivedWSAs 	0
scalar MyScenario.node[76].nic.phy80211p 	busyTime 	0.00034365217391304
scalar MyScenario.node[76].nic.mac1609_4 	ReceivedUnicastPackets 	0
scalar MyScenario.node[76].nic.mac1609_4 	ReceivedBroadcasts 	38
scalar MyScenario.node[76].nic.mac1609_4 	SentPackets 	11
scalar MyScenario.node[76].nic.mac1609_4 	SNIRLostPackets 	0
scalar MyScenario.node[76].nic.mac1609_4 	RXTXLostPackets 	0
scalar MyScenario.node[76].nic.mac1609_4 	TotalLostPackets 	0
scalar MyScenario.node[76].nic.mac1609_4 	DroppedPacketsInMac 	0
scalar MyScenario.node[76].nic.mac1609_4 	TooLittleTime 	0
scalar MyScenario.node[76].nic.mac1609_4 	TimesIntoBackoff 	11
scalar MyScenario.node[76].nic.mac1609_4 	SlotsBackoff 	15
scalar MyScenario.node[76].nic.mac1609_4 	NumInternalContention 	0
scalar MyScenario.node[76].nic.mac1609_4 	totalBusyTime 	0.005107
scalar MyScenario.node[76].veinsmobility 	startTime 	25200
scalar MyScenario.node[76].veinsmobility 	totalTime 	11.4
scalar MyScenario.node[76].veinsmobility 	stopTime 	25211.5
scalar MyScenario.node[76].veinsmobility 	minSpeed 	3.3654543395793
scalar MyScenario.node[76].veinsmobility 	maxSpeed 	12.676839647922
scalar MyScenario.node[76].veinsmobility 	totalDistance 	123.68824205301
scalar MyScenario.node[76].veinsmobility 	totalCO2Emission 	41.361952349272
scalar MyScenario.node[169].appl 	generatedWSMs 	0
scalar MyScenario.node[169].appl 	receivedWSMs 	0
scalar MyScenario.node[169].appl 	generatedBSMs 	13
scalar MyScenario.node[169].appl 	receivedBSMs 	361
scalar MyScenario.node[169].appl 	generatedWSAs 	0
scalar MyScenario.node[169].appl 	receivedWSAs 	0
scalar MyScenario.node[169].nic.phy80211p 	busyTime 	0.0028818320610687
scalar MyScenario.node[169].nic.mac1609_4 	ReceivedUnicastPackets 	0
scalar MyScenario.node[169].nic.mac1609_4 	ReceivedBroadcasts 	361
scalar MyScenario.node[169].nic.mac1609_4 	SentPackets 	13
scalar MyScenario.node[169].nic.mac1609_4 	SNIRLostPackets 	2
scalar MyScenario.node[169].nic.mac1609_4 	RXTXLostPackets 	0
scalar MyScenario.node[169].nic.mac1609_4 	TotalLostPackets 	2
scalar MyScenario.node[169].nic.mac1609_4 	DroppedPacketsInMac 	0
scalar MyScenario.node[169].nic.mac1609_4 	TooLittleTime 	0
scalar MyScenario.node[169].nic.mac1609_4 	TimesIntoBackoff 	13
scalar MyScenario.node[169].nic.mac1609_4 	SlotsBackoff 	13
scalar MyScenario.node[169].nic.mac1609_4 	NumInternalContention 	0
scalar MyScenario.node[169].nic.mac1609_4 	totalBusyTime 	0.039013
scalar MyScenario.node[169].veinsmobility 	startTime 	25200
scalar MyScenario.node[169].veinsmobility 	totalTime 	13
scalar MyScenario.node[169].veinsmobility 	stopTime 	25213.1
scalar MyScenario.node[169].veinsmobility 	minSpeed 	0.46070560528786
scalar MyScenario.node[169].veinsmobility 	maxSpeed 	16.825656030865
scalar MyScenario.node[169].veinsmobility 	totalDistance 	100.93534778395
scalar MyScenario.node[169].veinsmobility 	totalCO2Emission 	56.185562599855
scalar MyScenario.node[189].appl 	generatedWSMs 	0
scalar MyScenario.node[189].appl 	receivedWSMs 	0
scalar MyScenario.node[189].appl 	generatedBSMs 	13
scalar MyScenario.node[189].appl 	receivedBSMs 	238
scalar MyScenario.node[189].appl 	generatedWSAs 	0
scalar MyScenario.node[189].appl 	receivedWSAs 	0
scalar MyScenario.node[189].nic.phy80211p 	busyTime 	0.0019053435114504
scalar MyScenario.node[189].nic.mac1609_4 	ReceivedUnicastPackets 	0
scalar MyScenario.node[189].nic.mac1609_4 	ReceivedBroadcasts 	238
scalar MyScenario.node[189].nic.mac1609_4 	SentPackets 	13
scalar MyScenario.node[189].nic.mac1609_4 	SNIRLostPackets 	2
scalar MyScenario.node[189].nic.mac1609_4 	RXTXLostPackets 	0
scalar MyScenario.node[189].nic.mac1609_4 	TotalLostPackets 	2
scalar MyScenario.node[189].nic.mac1609_4 	DroppedPacketsInMac 	0
scalar MyScenario.node[189].nic.mac1609_4 	TooLittleTime 	0
scalar MyScenario.node[189].nic.mac1609_4 	TimesIntoBackoff 	13
scalar MyScenario.node[189].nic.mac1609_4 	SlotsBackoff 	10
scalar MyScenario.node[189].nic.mac1609_4 	NumInternalContention 	0
scalar MyScenario.node[189].nic.mac1609_4 	totalBusyTime 	0.026221
scalar MyScenario.node[189].veinsmobility 	startTime 	25200
scalar MyScenario.node[189].veinsmobility 	totalTime 	13
scalar MyScenario.node[189].veinsmobility 	stopTime 	25213.1
scalar MyScenario.node[189].veinsmobility 	minSpeed 	29.885846188358
scalar MyScenario.node[189].veinsmobility 	maxSpeed 	29.999377883766
scalar MyScenario.node[189].veinsmobility 	totalDistance 	388.7995280258
scalar MyScenario.node[189].veinsmobility 	totalCO2Emission 	65.832702705892
scalar MyScenario.node[59].appl 	generatedWSMs 	0
scalar MyScenario.node[59].appl 	receivedWSMs 	0
scalar MyScenario.node[59].appl 	generatedBSMs 	14
scalar MyScenario.node[59].appl 	receivedBSMs 	415
scalar MyScenario.node[59].appl 	generatedWSAs 	0
scalar MyScenario.node[59].appl 	receivedWSAs 	0
scalar MyScenario.node[59].nic.phy80211p 	busyTime 	0.0030472727272727
scalar MyScenario.node[59].nic.mac1609_4 	ReceivedUnicastPackets 	0
scalar MyScenario.node[59].nic.mac1609_4 	ReceivedBroadcasts 	415
scalar MyScenario.node[59].nic.mac1609_4 	SentPackets 	14
scalar MyScenario.node[59].nic.mac1609_4 	SNIRLostPackets 	4
scalar MyScenario.node[59].nic.mac1609_4 	RXTXLostPackets 	0
scalar MyScenario.node[59].nic.mac1609_4 	TotalLostPackets 	4
scalar MyScenario.node[59].nic.mac1609_4 	DroppedPacketsInMac 	0
scalar MyScenario.node[59].nic.mac1609_4 	TooLittleTime 	0
scalar MyScenario.node[59].nic.mac1609_4 	TimesIntoBackoff 	14
scalar MyScenario.node[59].nic.mac1609_4 	SlotsBackoff 	26
scalar MyScenario.node[59].nic.mac1609_4 	NumInternalContention 	0
scalar MyScenario.node[59].nic.mac1609_4 	totalBusyTime 	0.044838
scalar MyScenario.node[59].veinsmobility 	startTime 	25200
scalar MyScenario.node[59].veinsmobility 	totalTime 	14.2
scalar MyScenario.node[59].veinsmobility 	stopTime 	25214.3
scalar MyScenario.node[59].veinsmobility 	minSpeed 	1.303386257544
scalar MyScenario.node[59].veinsmobility 	maxSpeed 	12.057481837129
scalar MyScenario.node[59].veinsmobility 	totalDistance 	159.36967801732
scalar MyScenario.node[59].veinsmobility 	totalCO2Emission 	34.934905236467
scalar MyScenario.node[168].appl 	generatedWSMs 	0
scalar MyScenario.node[168].appl 	receivedWSMs 	0
scalar MyScenario.node[168].appl 	generatedBSMs 	14
scalar MyScenario.node[168].appl 	receivedBSMs 	142
scalar MyScenario.node[168].appl 	generatedWSAs 	0
scalar MyScenario.node[168].appl 	receivedWSAs 	0
scalar MyScenario.node[168].nic.phy80211p 	busyTime 	0.0010255555555556
scalar MyScenario.node[168].nic.mac1609_4 	ReceivedUnicastPackets 	0
scalar MyScenario.node[168].nic.mac1609_4 	ReceivedBroadcasts 	142
scalar MyScenario.node[168].nic.mac1609_4 	SentPackets 	14
scalar MyScenario.node[168].nic.mac1609_4 	SNIRLostPackets 	0
scalar MyScenario.node[168].nic.mac1609_4 	RXTXLostPackets 	0
scalar MyScenario.node[168].nic.mac1609_4 	TotalLostPackets 	0
scalar MyScenario.node[168].nic.mac1609_4 	DroppedPacketsInMac 	0
scalar MyScenario.node[168].nic.mac1609_4 	TooLittleTime 	0
scalar MyScenario.node[168].nic.mac1609_4 	TimesIntoBackoff 	14
scalar MyScenario.node[168].nic.mac1609_4 	SlotsBackoff 	18
scalar MyScenario.node[168].nic.mac1609_4 	NumInternalContention 	0
scalar MyScenario.node[168].nic.mac1609_4 	totalBusyTime 	0.016238
scalar MyScenario.node[168].veinsmobility 	startTime 	25200
scalar MyScenario.node[168].veinsmobility 	totalTime 	14.3
scalar MyScenario.node[168].veinsmobility 	stopTime 	25214.4
scalar MyScenario.node[168].veinsmobility 	minSpeed 	1.5467019903137
scalar MyScenario.node[168].veinsmobility 	maxSpeed 	18.717218166615
scalar MyScenario.node[168].veinsmobility 	totalDistance 	200.19994804199
scalar MyScenario.node[168].veinsmobility 	totalCO2Emission 	67.075583494627
scalar MyScenario.node[42].appl 	generatedWSMs 	0
scalar MyScenario.node[42].appl 	receivedWSMs 	0
scalar MyScenario.node[42].appl 	generatedBSMs 	14
scalar MyScenario.node[42].appl 	receivedBSMs 	415
scalar MyScenario.node[42].appl 	generatedWSAs 	0
scalar MyScenario.node[42].appl 	receivedWSAs 	0
scalar MyScenario.node[42].nic.phy80211p 	busyTime 	0.0030116666666667
scalar MyScenario.node[42].nic.mac1609_4 	ReceivedUnicastPackets 	0
scalar MyScenario.node[42].nic.mac1609_4 	ReceivedBroadcasts 	415
scalar MyScenario.node[42].nic.mac1609_4 	SentPackets 	14
scalar MyScenario.node[42].nic.mac1609_4 	SNIRLostPackets 	2
scalar MyScenario.node[42].nic.mac1609_4 	RXTXLostPackets 	0
scalar MyScenario.node[42].nic.mac1609_4 	TotalLostPackets 	2
scalar MyScenario.node[42].nic.mac1609_4 	DroppedPacketsInMac 	0
scalar MyScenario.node[42].nic.mac1609_4 	TooLittleTime 	0
scalar MyScenario.node[42].nic.mac1609_4 	TimesIntoBackoff 	14
scalar MyScenario.node[42].nic.mac1609_4 	SlotsBackoff 	18
scalar MyScenario.node[42].nic.mac1609_4 	NumInternalContention 	0
scalar MyScenario.node[42].nic.mac1609_4 	totalBusyTime 	0.044734
scalar MyScenario.node[42].veinsmobility 	startTime 	25200
scalar MyScenario.node[42].veinsmobility 	totalTime 	14.3
scalar MyScenario.node[42].veinsmobility 	stopTime 	25214.4
scalar MyScenario.node[42].veinsmobility 	minSpeed 	1.56519519294
scalar MyScenario.node[42].veinsmobility 	maxSpeed 	16.592033731601
scalar MyScenario.node[42].veinsmobility 	totalDistance 	114.118447711
scalar MyScenario.node[42].veinsmobility 	totalCO2Emission 	57.067573656597
scalar MyScenario.node[73].appl 	generatedWSMs 	0
scalar MyScenario.node[73].appl 	receivedWSMs 	0
scalar MyScenario.node[73].appl 	generatedBSMs 	14
scalar MyScenario.node[73].appl 	receivedBSMs 	278
scalar MyScenario.node[73].appl 	generatedWSAs 	0
scalar MyScenario.node[73].appl 	receivedWSAs 	0
scalar MyScenario.node[73].nic.phy80211p 	busyTime 	0.0020222222222222
scalar MyScenario.node[73].nic.mac1609_4 	ReceivedUnicastPackets 	0
scalar MyScenario.node[73].nic.mac1609_4 	ReceivedBroadcasts 	278
scalar MyScenario.node[73].nic.mac1609_4 	SentPackets 	14
scalar MyScenario.node[73].nic.mac1609_4 	SNIRLostPackets 	2
scalar MyScenario.node[73].nic.mac1609_4 	RXTXLostPackets 	1
scalar MyScenario.node[73].nic.mac1609_4 	TotalLostPackets 	3
scalar MyScenario.node[73].nic.mac1609_4 	DroppedPacketsInMac 	0
scalar MyScenario.node[73].nic.mac1609_4 	TooLittleTime 	0
scalar MyScenario.node[73].nic.mac1609_4 	TimesIntoBackoff 	14
scalar MyScenario.node[73].nic.mac1609_4 	SlotsBackoff 	23
scalar MyScenario.node[73].nic.mac1609_4 	NumInternalContention 	0
scalar MyScenario.node[73].nic.mac1609_4 	totalBusyTime 	0.03059
scalar MyScenario.node[73].veinsmobility 	startTime 	25200
scalar MyScenario.node[73].veinsmobility 	totalTime 	14.3
scalar MyScenario.node[73].veinsmobility 	stopTime 	25214.4
scalar MyScenario.node[73].veinsmobility 	minSpeed 	29.833869938098
scalar MyScenario.node[73].veinsmobility 	maxSpeed 	30.048252234202
scalar MyScenario.node[73].veinsmobility 	totalDistance 	427.70054404994
scalar MyScenario.node[73].veinsmobility 	totalCO2Emission 	76.349085035293
scalar MyScenario.node[1].appl 	generatedWSMs 	0
scalar MyScenario.node[1].appl 	receivedWSMs 	0
scalar MyScenario.node[1].appl 	generatedBSMs 	16
scalar MyScenario.node[1].appl 	receivedBSMs 	315
scalar MyScenario.node[1].appl 	generatedWSAs 	0
scalar MyScenario.node[1].appl 	receivedWSAs 	0
scalar MyScenario.node[1].nic.phy80211p 	busyTime 	0.0021266666666667
scalar MyScenario.node[1].nic.mac1609_4 	ReceivedUnicastPackets 	0
scalar MyScenario.node[1].nic.mac1609_4 	ReceivedBroadcasts 	315
scalar MyScenario.node[1].nic.mac1609_4 	SentPackets 	16
scalar MyScenario.node[1].nic.mac1609_4 	SNIRLostPackets 	4
scalar MyScenario.node[1].nic.mac1609_4 	RXTXLostPackets 	0
scalar MyScenario.node[1].nic.mac1609_4 	TotalLostPackets 	4
scalar MyScenario.node[1].nic.mac1609_4 	DroppedPacketsInMac 	0
scalar MyScenario.node[1].nic.mac1609_4 	TooLittleTime 	0
scalar MyScenario.node[1].nic.mac1609_4 	TimesIntoBackoff 	16
scalar MyScenario.node[1].nic.mac1609_4 	SlotsBackoff 	28
scalar MyScenario.node[1].nic.mac1609_4 	NumInternalContention 	0
scalar MyScenario.node[1].nic.mac1609_4 	totalBusyTime 	0.034648
scalar MyScenario.node[1].veinsmobility 	startTime 	25200
scalar MyScenario.node[1].veinsmobility 	totalTime 	15.5
scalar MyScenario.node[1].veinsmobility 	stopTime 	25215.6
scalar MyScenario.node[1].veinsmobility 	minSpeed 	29.80955711535
scalar MyScenario.node[1].veinsmobility 	maxSpeed 	30.065887796357
scalar MyScenario.node[1].veinsmobility 	totalDistance 	464.1485628423
scalar MyScenario.node[1].veinsmobility 	totalCO2Emission 	99.604066039715
scalar MyScenario.node[114].appl 	generatedWSMs 	0
scalar MyScenario.node[114].appl 	receivedWSMs 	0
scalar MyScenario.node[114].appl 	generatedBSMs 	16
scalar MyScenario.node[114].appl 	receivedBSMs 	380
scalar MyScenario.node[114].appl 	generatedWSAs 	0
scalar MyScenario.node[114].appl 	receivedWSAs 	0
scalar MyScenario.node[114].nic.phy80211p 	busyTime 	0.00247
scalar MyScenario.node[114].nic.mac1609_4 	ReceivedUnicastPackets 	0
scalar MyScenario.node[114].nic.mac1609_4 	ReceivedBroadcasts 	380
scalar MyScenario.node[114].nic.mac1609_4 	SentPackets 	16
scalar MyScenario.node[114].nic.mac1609_4 	SNIRLostPackets 	0
scalar MyScenario.node[114].nic.mac1609_4 	RXTXLostPackets 	0
scalar MyScenario.node[114].nic.mac1609_4 	TotalLostPackets 	0
scalar MyScenario.node[114].nic.mac1609_4 	DroppedPacketsInMac 	0
scalar MyScenario.node[114].nic.mac1609_4 	TooLittleTime 	0
scalar MyScenario.node[114].nic.mac1609_4 	TimesIntoBackoff 	16
scalar MyScenario.node[114].nic.mac1609_4 	SlotsBackoff 	21
scalar MyScenario.node[114].nic.mac1609_4 	NumInternalContention 	0
scalar MyScenario.node[114].nic.mac1609_4 	totalBusyTime 	0.0412
scalar MyScenario.node[114].veinsmobility 	startTime 	25200
scalar MyScenario.node[114].veinsmobility 	totalTime 	15.9
scalar MyScenario.node[114].veinsmobility 	stopTime 	25216
scalar MyScenario.node[114].veinsmobility 	minSpeed 	0
scalar MyScenario.node[114].veinsmobility 	maxSpeed 	14.742056163181
scalar MyScenario.node[114].veinsmobility 	totalDistance 	102.42980313154
scalar MyScenario.node[114].veinsmobility 	totalCO2Emission 	48.13480345956
scalar MyScenario.node[138].appl 	generatedWSMs 	0
scalar MyScenario.node[138].appl 	receivedWSMs 	0
scalar MyScenario.node[138].appl 	generatedBSMs 	17
scalar MyScenario.node[138].appl 	receivedBSMs 	377
scalar MyScenario.node[138].appl 	generatedWSAs 	0
scalar MyScenario.node[138].appl 	receivedWSAs 	0
scalar MyScenario.node[138].nic.phy80211p 	busyTime 	0.0023050292397661
scalar MyScenario.node[138].nic.mac1609_4 	ReceivedUnicastPackets 	0
scalar MyScenario.node[138].nic.mac1609_4 	ReceivedBroadcasts 	377
scalar MyScenario.node[138].nic.mac1609_4 	SentPackets 	17
scalar MyScenario.node[138].nic.mac1609_4 	SNIRLostPackets 	2
scalar MyScenario.node[138].nic.mac1609_4 	RXTXLostPackets 	0
scalar MyScenario.node[138].nic.mac1609_4 	TotalLostPackets 	2
scalar MyScenario.node[138].nic.mac1609_4 	DroppedPacketsInMac 	0
scalar MyScenario.node[138].nic.mac1609_4 	TooLittleTime 	0
scalar MyScenario.node[138].nic.mac1609_4 	TimesIntoBackoff 	30
scalar MyScenario.node[138].nic.mac1609_4 	SlotsBackoff 	30
scalar MyScenario.node[138].nic.mac1609_4 	NumInternalContention 	0
scalar MyScenario.node[138].nic.mac1609_4 	totalBusyTime 	0.041097
scalar MyScenario.node[138].veinsmobility 	startTime 	25200
scalar MyScenario.node[138].veinsmobility 	totalTime 	17
scalar MyScenario.node[138].veinsmobility 	stopTime 	25217.1
scalar MyScenario.node[138].veinsmobility 	minSpeed 	31.024985081653
scalar MyScenario.node[138].veinsmobility 	maxSpeed 	38.717475109565
scalar MyScenario.node[138].veinsmobility 	totalDistance 	575.82662805378
scalar MyScenario.node[138].veinsmobility 	totalCO2Emission 	85.909488795854
scalar MyScenario.node[172].appl 	generatedWSMs 	0
scalar MyScenario.node[172].appl 	receivedWSMs 	0
scalar MyScenario.node[172].appl 	generatedBSMs 	17
scalar MyScenario.node[172].appl 	receivedBSMs 	267
scalar MyScenario.node[172].appl 	generatedWSAs 	0
scalar MyScenario.node[172].appl 	receivedWSAs 	0
scalar MyScenario.node[172].nic.phy80211p 	busyTime 	0.0015867428571429
scalar MyScenario.node[172].nic.mac1609_4 	ReceivedUnicastPackets 	0
scalar MyScenario.node[172].nic.mac1609_4 	ReceivedBroadcasts 	267
scalar MyScenario.node[172].nic.mac1609_4 	SentPackets 	17
scalar MyScenario.node[172].nic.mac1609_4 	SNIRLostPackets 	0
scalar MyScenario.node[172].nic.mac1609_4 	RXTXLostPackets 	0
scalar MyScenario.node[172].nic.mac1609_4 	TotalLostPackets 	0
scalar MyScenario.node[172].nic.mac1609_4 	DroppedPacketsInMac 	0
scalar MyScenario.node[172].nic.mac1609_4 	TooLittleTime 	0
scalar MyScenario.node[172].nic.mac1609_4 	TimesIntoBackoff 	17
scalar MyScenario.node[172].nic.mac1609_4 	SlotsBackoff 	24
scalar MyScenario.node[172].nic.mac1609_4 	NumInternalContention 	0
scalar MyScenario.node[172].nic.mac1609_4 	totalBusyTime 	0.029553
scalar MyScenario.node[172].veinsmobility 	startTime 	25200
scalar MyScenario.node[172].veinsmobility 	totalTime 	17.4
scalar MyScenario.node[172].veinsmobility 	stopTime 	25217.5
scalar MyScenario.node[172].veinsmobility 	minSpeed 	0.24736165924277
scalar MyScenario.node[172].veinsmobility 	maxSpeed 	17.730390340251
scalar MyScenario.node[172].veinsmobility 	totalDistance 	227.93555029387
scalar MyScenario.node[172].veinsmobility 	totalCO2Emission 	76.830776886004
scalar MyScenario.node[67].appl 	generatedWSMs 	0
scalar MyScenario.node[67].appl 	receivedWSMs 	0
scalar MyScenario.node[67].appl 	generatedBSMs 	18
scalar MyScenario.node[67].appl 	receivedBSMs 	633
scalar MyScenario.node[67].appl 	generatedWSAs 	0
scalar MyScenario.node[67].appl 	receivedWSAs 	0
scalar MyScenario.node[67].nic.phy80211p 	busyTime 	0.0037193220338983
scalar MyScenario.node[67].nic.mac1609_4 	ReceivedUnicastPackets 	0
scalar MyScenario.node[67].nic.mac1609_4 	ReceivedBroadcasts 	633
scalar MyScenario.node[67].nic.mac1609_4 	SentPackets 	18
scalar MyScenario.node[67].nic.mac1609_4 	SNIRLostPackets 	0
scalar MyScenario.node[67].nic.mac1609_4 	RXTXLostPackets 	0
scalar MyScenario.node[67].nic.mac1609_4 	TotalLostPackets 	0
scalar MyScenario.node[67].nic.mac1609_4 	DroppedPacketsInMac 	0
scalar MyScenario.node[67].nic.mac1609_4 	TooLittleTime 	0
scalar MyScenario.node[67].nic.mac1609_4 	TimesIntoBackoff 	18
scalar MyScenario.node[67].nic.mac1609_4 	SlotsBackoff 	28
scalar MyScenario.node[67].nic.mac1609_4 	NumInternalContention 	0
scalar MyScenario.node[67].nic.mac1609_4 	totalBusyTime 	0.067722
scalar MyScenario.node[67].veinsmobility 	startTime 	25200
scalar MyScenario.node[67].veinsmobility 	totalTime 	17.6
scalar MyScenario.node[67].veinsmobility 	stopTime 	25217.7
scalar MyScenario.node[67].veinsmobility 	minSpeed 	0.26335946212441
scalar MyScenario.node[67].veinsmobility 	maxSpeed 	17.206974436146
scalar MyScenario.node[67].veinsmobility 	totalDistance 	240.26794254961
scalar MyScenario.node[67].veinsmobility 	totalCO2Emission 	76.388102343888
scalar MyScenario.node[70].appl 	generatedWSMs 	0
scalar MyScenario.node[70].appl 	receivedWSMs 	0
scalar MyScenario.node[70].appl 	generatedBSMs 	18
scalar MyScenario.node[70].appl 	receivedBSMs 	286
scalar MyScenario.node[70].appl 	generatedWSAs 	0
scalar MyScenario.node[70].appl 	receivedWSAs 	0
scalar MyScenario.node[70].nic.phy80211p 	busyTime 	0.0016165217391304
scalar MyScenario.node[70].nic.mac1609_4 	ReceivedUnicastPackets 	0
scalar MyScenario.node[70].nic.mac1609_4 	ReceivedBroadcasts 	286
scalar MyScenario.node[70].nic.mac1609_4 	SentPackets 	18
scalar MyScenario.node[70].nic.mac1609_4 	SNIRLostPackets 	0
scalar MyScenario.node[70].nic.mac1609_4 	RXTXLostPackets 	0
scalar MyScenario.node[70].nic.mac1609_4 	TotalLostPackets 	0
scalar MyScenario.node[70].nic.mac1609_4 	DroppedPacketsInMac 	0
scalar MyScenario.node[70].nic.mac1609_4 	TooLittleTime 	0
scalar MyScenario.node[70].nic.mac1609_4 	TimesIntoBackoff 	18
scalar MyScenario.node[70].nic.mac1609_4 	SlotsBackoff 	24
scalar MyScenario.node[70].nic.mac1609_4 	NumInternalContention 	0
scalar MyScenario.node[70].nic.mac1609_4 	totalBusyTime 	0.031634
scalar MyScenario.node[70].veinsmobility 	startTime 	25200
scalar MyScenario.node[70].veinsmobility 	totalTime 	18.3
scalar MyScenario.node[70].veinsmobility 	stopTime 	25218.4
scalar MyScenario.node[70].veinsmobility 	minSpeed 	0.25710354725376
scalar MyScenario.node[70].veinsmobility 	maxSpeed 	16.320485689915
scalar MyScenario.node[70].veinsmobility 	totalDistance 	235.04142925904
scalar MyScenario.node[70].veinsmobility 	totalCO2Emission 	72.223421835259
scalar MyScenario.node[139].appl 	generatedWSMs 	0
scalar MyScenario.node[139].appl 	receivedWSMs 	0
scalar MyScenario.node[139].appl 	generatedBSMs 	18
scalar MyScenario.node[139].appl 	receivedBSMs 	404
scalar MyScenario.node[139].appl 	generatedWSAs 	0
scalar MyScenario.node[139].appl 	receivedWSAs 	0
scalar MyScenario.node[139].nic.phy80211p 	busyTime 	0.0022746524064171
scalar MyScenario.node[139].nic.mac1609_4 	ReceivedUnicastPackets 	0
scalar MyScenario.node[139].nic.mac1609_4 	ReceivedBroadcasts 	404
scalar MyScenario.node[139].nic.mac1609_4 	SentPackets 	18
scalar MyScenario.node[139].nic.mac1609_4 	SNIRLostPackets 	5
scalar MyScenario.node[139].nic.mac1609_4 	RXTXLostPackets 	0
scalar MyScenario.node[139].nic.mac1609_4 	TotalLostPackets 	5
scalar MyScenario.node[139].nic.mac1609_4 	DroppedPacketsInMac 	0
scalar MyScenario.node[139].nic.mac1609_4 	TooLittleTime 	0
scalar MyScenario.node[139].nic.mac1609_4 	TimesIntoBackoff 	18
scalar MyScenario.node[139].nic.mac1609_4 	SlotsBackoff 	22
scalar MyScenario.node[139].nic.mac1609_4 	NumInternalContention 	0
scalar MyScenario.node[139].nic.mac1609_4 	totalBusyTime 	0.044218
scalar MyScenario.node[139].veinsmobility 	startTime 	25200
scalar MyScenario.node[139].veinsmobility 	totalTime 	18.6
scalar MyScenario.node[139].veinsmobility 	stopTime 	25218.7
scalar MyScenario.node[139].veinsmobility 	minSpeed 	29.013940697827
scalar MyScenario.node[139].veinsmobility 	maxSpeed 	29.16339151354
scalar MyScenario.node[139].veinsmobility 	totalDistance 	541.65520870007
scalar MyScenario.node[139].veinsmobility 	totalCO2Emission 	97.108956561684
scalar MyScenario.node[103].appl 	generatedWSMs 	0
scalar MyScenario.node[103].appl 	receivedWSMs 	0
scalar MyScenario.node[103].appl 	generatedBSMs 	19
scalar MyScenario.node[103].appl 	receivedBSMs 	643
scalar MyScenario.node[103].appl 	generatedWSAs 	0
scalar MyScenario.node[103].appl 	receivedWSAs 	0
scalar MyScenario.node[103].nic.phy80211p 	busyTime 	0.0035492063492064
scalar MyScenario.node[103].nic.mac1609_4 	ReceivedUnicastPackets 	0
scalar MyScenario.node[103].nic.mac1609_4 	ReceivedBroadcasts 	643
scalar MyScenario.node[103].nic.mac1609_4 	SentPackets 	19
scalar MyScenario.node[103].nic.mac1609_4 	SNIRLostPackets 	2
scalar MyScenario.node[103].nic.mac1609_4 	RXTXLostPackets 	0
scalar MyScenario.node[103].nic.mac1609_4 	TotalLostPackets 	2
scalar MyScenario.node[103].nic.mac1609_4 	DroppedPacketsInMac 	0
scalar MyScenario.node[103].nic.mac1609_4 	TooLittleTime 	0
scalar MyScenario.node[103].nic.mac1609_4 	TimesIntoBackoff 	19
scalar MyScenario.node[103].nic.mac1609_4 	SlotsBackoff 	29
scalar MyScenario.node[103].nic.mac1609_4 	NumInternalContention 	0
scalar MyScenario.node[103].nic.mac1609_4 	totalBusyTime 	0.068971
scalar MyScenario.node[103].veinsmobility 	startTime 	25200
scalar MyScenario.node[103].veinsmobility 	totalTime 	18.8
scalar MyScenario.node[103].veinsmobility 	stopTime 	25218.9
scalar MyScenario.node[103].veinsmobility 	minSpeed 	27.098892125132
scalar MyScenario.node[103].veinsmobility 	maxSpeed 	27.227793037923
scalar MyScenario.node[103].veinsmobility 	totalDistance 	512.13032143764
scalar MyScenario.node[103].veinsmobility 	totalCO2Emission 	87.322607987011
scalar MyScenario.node[161].appl 	generatedWSMs 	0
scalar MyScenario.node[161].appl 	receivedWSMs 	0
scalar MyScenario.node[161].appl 	generatedBSMs 	19
scalar MyScenario.node[161].appl 	receivedBSMs 	131
scalar MyScenario.node[161].appl 	generatedWSAs 	0
scalar MyScenario.node[161].appl 	receivedWSAs 	0
scalar MyScenario.node[161].nic.phy80211p 	busyTime 	0.00072084656084656
scalar MyScenario.node[161].nic.mac1609_4 	ReceivedUnicastPackets 	0
scalar MyScenario.node[161].nic.mac1609_4 	ReceivedBroadcasts 	131
scalar MyScenario.node[161].nic.mac1609_4 	SentPackets 	19
scalar MyScenario.node[161].nic.mac1609_4 	SNIRLostPackets 	0
scalar MyScenario.node[161].nic.mac1609_4 	RXTXLostPackets 	0
scalar MyScenario.node[161].nic.mac1609_4 	TotalLostPackets 	0
scalar MyScenario.node[161].nic.mac1609_4 	DroppedPacketsInMac 	0
scalar MyScenario.node[161].nic.mac1609_4 	TooLittleTime 	0
scalar MyScenario.node[161].nic.mac1609_4 	TimesIntoBackoff 	19
scalar MyScenario.node[161].nic.mac1609_4 	SlotsBackoff 	31
scalar MyScenario.node[161].nic.mac1609_4 	NumInternalContention 	0
scalar MyScenario.node[161].nic.mac1609_4 	totalBusyTime 	0.015619
scalar MyScenario.node[161].veinsmobility 	startTime 	25200
scalar MyScenario.node[161].veinsmobility 	totalTime 	18.8
scalar MyScenario.node[161].veinsmobility 	stopTime 	25218.9
scalar MyScenario.node[161].veinsmobility 	minSpeed 	0.25011483928449
scalar MyScenario.node[161].veinsmobility 	maxSpeed 	15.834537162126
scalar MyScenario.node[161].veinsmobility 	totalDistance 	174.634533478
scalar MyScenario.node[161].veinsmobility 	totalCO2Emission 	83.115451636266
scalar MyScenario.node[40].appl 	generatedWSMs 	0
scalar MyScenario.node[40].appl 	receivedWSMs 	0
scalar MyScenario.node[40].appl 	generatedBSMs 	20
scalar MyScenario.node[40].appl 	receivedBSMs 	682
scalar MyScenario.node[40].appl 	generatedWSAs 	0
scalar MyScenario.node[40].appl 	receivedWSAs 	0
scalar MyScenario.node[40].nic.phy80211p 	busyTime 	0.0035421782178218
scalar MyScenario.node[40].nic.mac1609_4 	ReceivedUnicastPackets 	0
scalar MyScenario.node[40].nic.mac1609_4 	ReceivedBroadcasts 	682
scalar MyScenario.node[40].nic.mac1609_4 	SentPackets 	20
scalar MyScenario.node[40].nic.mac1609_4 	SNIRLostPackets 	6
scalar MyScenario.node[40].nic.mac1609_4 	RXTXLostPackets 	0
scalar MyScenario.node[40].nic.mac1609_4 	TotalLostPackets 	6
scalar MyScenario.node[40].nic.mac1609_4 	DroppedPacketsInMac 	0
scalar MyScenario.node[40].nic.mac1609_4 	TooLittleTime 	0
scalar MyScenario.node[40].nic.mac1609_4 	TimesIntoBackoff 	20
scalar MyScenario.node[40].nic.mac1609_4 	SlotsBackoff 	40
scalar MyScenario.node[40].nic.mac1609_4 	NumInternalContention 	0
scalar MyScenario.node[40].nic.mac1609_4 	totalBusyTime 	0.07334
scalar MyScenario.node[40].veinsmobility 	startTime 	25200
scalar MyScenario.node[40].veinsmobility 	totalTime 	20.1
scalar MyScenario.node[40].veinsmobility 	stopTime 	25220.2
scalar MyScenario.node[40].veinsmobility 	minSpeed 	26.940598037607
scalar MyScenario.node[40].veinsmobility 	maxSpeed 	27.475907685906
scalar MyScenario.node[40].veinsmobility 	totalDistance 	544.93519583936
scalar MyScenario.node[40].veinsmobility 	totalCO2Emission 	149.17031859228
scalar MyScenario.node[108].appl 	generatedWSMs 	0
scalar MyScenario.node[108].appl 	receivedWSMs 	0
scalar MyScenario.node[108].appl 	generatedBSMs 	20
scalar MyScenario.node[108].appl 	receivedBSMs 	79
scalar MyScenario.node[108].appl 	generatedWSAs 	0
scalar MyScenario.node[108].appl 	receivedWSAs 	0
scalar MyScenario.node[108].nic.phy80211p 	busyTime 	0.00040274509803922
scalar MyScenario.node[108].nic.mac1609_4 	ReceivedUnicastPackets 	0
scalar MyScenario.node[108].nic.mac1609_4 	ReceivedBroadcasts 	79
scalar MyScenario.node[108].nic.mac1609_4 	SentPackets 	20
scalar MyScenario.node[108].nic.mac1609_4 	SNIRLostPackets 	0
scalar MyScenario.node[108].nic.mac1609_4 	RXTXLostPackets 	0
scalar MyScenario.node[108].nic.mac1609_4 	TotalLostPackets 	0
scalar MyScenario.node[108].nic.mac1609_4 	DroppedPacketsInMac 	0
scalar MyScenario.node[108].nic.mac1609_4 	TooLittleTime 	0
scalar MyScenario.node[108].nic.mac1609_4 	TimesIntoBackoff 	20
scalar MyScenario.node[108].nic.mac1609_4 	SlotsBackoff 	22
scalar MyScenario.node[108].nic.mac1609_4 	NumInternalContention 	0
scalar MyScenario.node[108].nic.mac1609_4 	totalBusyTime 	0.010316
scalar MyScenario.node[108].veinsmobility 	startTime 	25200
scalar MyScenario.node[108].veinsmobility 	totalTime 	20.3
scalar MyScenario.node[108].veinsmobility 	stopTime 	25220.4
scalar MyScenario.node[108].veinsmobility 	minSpeed 	0.27227820668695
scalar MyScenario.node[108].veinsmobility 	maxSpeed 	13.935406312391
scalar MyScenario.node[108].veinsmobility 	totalDistance 	207.71345292384
scalar MyScenario.node[108].veinsmobility 	totalCO2Emission 	60.802640304976
scalar MyScenario.node[159].appl 	generatedWSMs 	0
scalar MyScenario.node[159].appl 	receivedWSMs 	0
scalar MyScenario.node[159].appl 	generatedBSMs 	21
scalar MyScenario.node[159].appl 	receivedBSMs 	748
scalar MyScenario.node[159].appl 	generatedWSAs 	0
scalar MyScenario.node[159].appl 	receivedWSAs 	0
scalar MyScenario.node[159].nic.phy80211p 	busyTime 	0.0037580676328503
scalar MyScenario.node[159].nic.mac1609_4 	ReceivedUnicastPackets 	0
scalar MyScenario.node[159].nic.mac1609_4 	ReceivedBroadcasts 	748
scalar MyScenario.node[159].nic.mac1609_4 	SentPackets 	21
scalar MyScenario.node[159].nic.mac1609_4 	SNIRLostPackets 	0
scalar MyScenario.node[159].nic.mac1609_4 	RXTXLostPackets 	0
scalar MyScenario.node[159].nic.mac1609_4 	TotalLostPackets 	0
scalar MyScenario.node[159].nic.mac1609_4 	DroppedPacketsInMac 	0
scalar MyScenario.node[159].nic.mac1609_4 	TooLittleTime 	0
scalar MyScenario.node[159].nic.mac1609_4 	TimesIntoBackoff 	21
scalar MyScenario.node[159].nic.mac1609_4 	SlotsBackoff 	34
scalar MyScenario.node[159].nic.mac1609_4 	NumInternalContention 	0
scalar MyScenario.node[159].nic.mac1609_4 	totalBusyTime 	0.079997
scalar MyScenario.node[159].veinsmobility 	startTime 	25200
scalar MyScenario.node[159].veinsmobility 	totalTime 	20.6
scalar MyScenario.node[159].veinsmobility 	stopTime 	25220.7
scalar MyScenario.node[159].veinsmobility 	minSpeed 	0.2787053698469
scalar MyScenario.node[159].veinsmobility 	maxSpeed 	13.673093748342
scalar MyScenario.node[159].veinsmobility 	totalDistance 	239.62468136568
scalar MyScenario.node[159].veinsmobility 	totalCO2Emission 	66.428017091665
scalar MyScenario.node[111].appl 	generatedWSMs 	0
scalar MyScenario.node[111].appl 	receivedWSMs 	0
scalar MyScenario.node[111].appl 	generatedBSMs 	22
scalar MyScenario.node[111].appl 	receivedBSMs 	750
scalar MyScenario.node[111].appl 	generatedWSAs 	0
scalar MyScenario.node[111].appl 	receivedWSAs 	0
scalar MyScenario.node[111].nic.phy80211p 	busyTime 	0.003661971830986
scalar MyScenario.node[111].nic.mac1609_4 	ReceivedUnicastPackets 	0
scalar MyScenario.node[111].nic.mac1609_4 	ReceivedBroadcasts 	750
scalar MyScenario.node[111].nic.mac1609_4 	SentPackets 	22
scalar MyScenario.node[111].nic.mac1609_4 	SNIRLostPackets 	0
scalar MyScenario.node[111].nic.mac1609_4 	RXTXLostPackets 	0
scalar MyScenario.node[111].nic.mac1609_4 	TotalLostPackets 	0
scalar MyScenario.node[111].nic.mac1609_4 	DroppedPacketsInMac 	0
scalar MyScenario.node[111].nic.mac1609_4 	TooLittleTime 	0
scalar MyScenario.node[111].nic.mac1609_4 	TimesIntoBackoff 	22
scalar MyScenario.node[111].nic.mac1609_4 	SlotsBackoff 	26
scalar MyScenario.node[111].nic.mac1609_4 	NumInternalContention 	0
scalar MyScenario.node[111].nic.mac1609_4 	totalBusyTime 	0.08031
scalar MyScenario.node[111].veinsmobility 	startTime 	25200
scalar MyScenario.node[111].veinsmobility 	totalTime 	21.2
scalar MyScenario.node[111].veinsmobility 	stopTime 	25221.3
scalar MyScenario.node[111].veinsmobility 	minSpeed 	0
scalar MyScenario.node[111].veinsmobility 	maxSpeed 	17.355983684927
scalar MyScenario.node[111].veinsmobility 	totalDistance 	249.47156232827
scalar MyScenario.node[111].veinsmobility 	totalCO2Emission 	77.697760306685
scalar MyScenario.node[151].appl 	generatedWSMs 	0
scalar MyScenario.node[151].appl 	receivedWSMs 	0
scalar MyScenario.node[151].appl 	generatedBSMs 	22
scalar MyScenario.node[151].appl 	receivedBSMs 	717
scalar MyScenario.node[151].appl 	generatedWSAs 	0
scalar MyScenario.node[151].appl 	receivedWSAs 	0
scalar MyScenario.node[151].nic.phy80211p 	busyTime 	0.0034844859813084
scalar MyScenario.node[151].nic.mac1609_4 	ReceivedUnicastPackets 	0
scalar MyScenario.node[151].nic.mac1609_4 	ReceivedBroadcasts 	717
scalar MyScenario.node[151].nic.mac1609_4 	SentPackets 	22
scalar MyScenario.node[151].nic.mac1609_4 	SNIRLostPackets 	0
scalar MyScenario.node[151].nic.mac1609_4 	RXTXLostPackets 	0
scalar MyScenario.node[151].nic.mac1609_4 	TotalLostPackets 	0
scalar MyScenario.node[151].nic.mac1609_4 	DroppedPacketsInMac 	0
scalar MyScenario.node[151].nic.mac1609_4 	TooLittleTime 	0
scalar MyScenario.node[151].nic.mac1609_4 	TimesIntoBackoff 	22
scalar MyScenario.node[151].nic.mac1609_4 	SlotsBackoff 	38
scalar MyScenario.node[151].nic.mac1609_4 	NumInternalContention 	0
scalar MyScenario.node[151].nic.mac1609_4 	totalBusyTime 	0.076878
scalar MyScenario.node[151].veinsmobility 	startTime 	25200
scalar MyScenario.node[151].veinsmobility 	totalTime 	21.3
scalar MyScenario.node[151].veinsmobility 	stopTime 	25221.4
scalar MyScenario.node[151].veinsmobility 	minSpeed 	0.24744938663486
scalar MyScenario.node[151].veinsmobility 	maxSpeed 	15.946670518907
scalar MyScenario.node[151].veinsmobility 	totalDistance 	243.28077391627
scalar MyScenario.node[151].veinsmobility 	totalCO2Emission 	70.05410250163
scalar MyScenario.node[174].appl 	generatedWSMs 	0
scalar MyScenario.node[174].appl 	receivedWSMs 	0
scalar MyScenario.node[174].appl 	generatedBSMs 	21
scalar MyScenario.node[174].appl 	receivedBSMs 	509
scalar MyScenario.node[174].appl 	generatedWSAs 	0
scalar MyScenario.node[174].appl 	receivedWSAs 	0
scalar MyScenario.node[174].nic.phy80211p 	busyTime 	0.0025028037383178
scalar MyScenario.node[174].nic.mac1609_4 	ReceivedUnicastPackets 	0
scalar MyScenario.node[174].nic.mac1609_4 	ReceivedBroadcasts 	509
scalar MyScenario.node[174].nic.mac1609_4 	SentPackets 	21
scalar MyScenario.node[174].nic.mac1609_4 	SNIRLostPackets 	6
scalar MyScenario.node[174].nic.mac1609_4 	RXTXLostPackets 	0
scalar MyScenario.node[174].nic.mac1609_4 	TotalLostPackets 	6
scalar MyScenario.node[174].nic.mac1609_4 	DroppedPacketsInMac 	0
scalar MyScenario.node[174].nic.mac1609_4 	TooLittleTime 	0
scalar MyScenario.node[174].nic.mac1609_4 	TimesIntoBackoff 	21
scalar MyScenario.node[174].nic.mac1609_4 	SlotsBackoff 	42
scalar MyScenario.node[174].nic.mac1609_4 	NumInternalContention 	0
scalar MyScenario.node[174].nic.mac1609_4 	totalBusyTime 	0.055453
scalar MyScenario.node[174].veinsmobility 	startTime 	25200
scalar MyScenario.node[174].veinsmobility 	totalTime 	21.3
scalar MyScenario.node[174].veinsmobility 	stopTime 	25221.4
scalar MyScenario.node[174].veinsmobility 	minSpeed 	28.540599921684
scalar MyScenario.node[174].veinsmobility 	maxSpeed 	28.67473305016
scalar MyScenario.node[174].veinsmobility 	totalDistance 	610.0608182621
scalar MyScenario.node[174].veinsmobility 	totalCO2Emission 	103.98964068963
scalar MyScenario.node[87].appl 	generatedWSMs 	0
scalar MyScenario.node[87].appl 	receivedWSMs 	0
scalar MyScenario.node[87].appl 	generatedBSMs 	22
scalar MyScenario.node[87].appl 	receivedBSMs 	117
scalar MyScenario.node[87].appl 	generatedWSAs 	0
scalar MyScenario.node[87].appl 	receivedWSAs 	0
scalar MyScenario.node[87].nic.phy80211p 	busyTime 	0.00056595348837209
scalar MyScenario.node[87].nic.mac1609_4 	ReceivedUnicastPackets 	0
scalar MyScenario.node[87].nic.mac1609_4 	ReceivedBroadcasts 	117
scalar MyScenario.node[87].nic.mac1609_4 	SentPackets 	22
scalar MyScenario.node[87].nic.mac1609_4 	SNIRLostPackets 	0
scalar MyScenario.node[87].nic.mac1609_4 	RXTXLostPackets 	0
scalar MyScenario.node[87].nic.mac1609_4 	TotalLostPackets 	0
scalar MyScenario.node[87].nic.mac1609_4 	DroppedPacketsInMac 	0
scalar MyScenario.node[87].nic.mac1609_4 	TooLittleTime 	0
scalar MyScenario.node[87].nic.mac1609_4 	TimesIntoBackoff 	22
scalar MyScenario.node[87].nic.mac1609_4 	SlotsBackoff 	35
scalar MyScenario.node[87].nic.mac1609_4 	NumInternalContention 	0
scalar MyScenario.node[87].nic.mac1609_4 	totalBusyTime 	0.014478
scalar MyScenario.node[87].veinsmobility 	startTime 	25200
scalar MyScenario.node[87].veinsmobility 	totalTime 	21.4
scalar MyScenario.node[87].veinsmobility 	stopTime 	25221.5
scalar MyScenario.node[87].veinsmobility 	minSpeed 	0.25157564847311
scalar MyScenario.node[87].veinsmobility 	maxSpeed 	12.967448584714
scalar MyScenario.node[87].veinsmobility 	totalDistance 	220.35041399005
scalar MyScenario.node[87].veinsmobility 	totalCO2Emission 	59.746276328649
scalar MyScenario.node[140].appl 	generatedWSMs 	0
scalar MyScenario.node[140].appl 	receivedWSMs 	0
scalar MyScenario.node[140].appl 	generatedBSMs 	22
scalar MyScenario.node[140].appl 	receivedBSMs 	619
scalar MyScenario.node[140].appl 	generatedWSAs 	0
scalar MyScenario.node[140].appl 	receivedWSAs 	0
scalar MyScenario.node[140].nic.phy80211p 	busyTime 	0.0029810138248848
scalar MyScenario.node[140].nic.mac1609_4 	ReceivedUnicastPackets 	0
scalar MyScenario.node[140].nic.mac1609_4 	ReceivedBroadcasts 	619
scalar MyScenario.node[140].nic.mac1609_4 	SentPackets 	22
scalar MyScenario.node[140].nic.mac1609_4 	SNIRLostPackets 	3
scalar MyScenario.node[140].nic.mac1609_4 	RXTXLostPackets 	0
scalar MyScenario.node[140].nic.mac1609_4 	TotalLostPackets 	3
scalar MyScenario.node[140].nic.mac1609_4 	DroppedPacketsInMac 	0
scalar MyScenario.node[140].nic.mac1609_4 	TooLittleTime 	0
scalar MyScenario.node[140].nic.mac1609_4 	TimesIntoBackoff 	22
scalar MyScenario.node[140].nic.mac1609_4 	SlotsBackoff 	34
scalar MyScenario.node[140].nic.mac1609_4 	NumInternalContention 	0
scalar MyScenario.node[140].nic.mac1609_4 	totalBusyTime 	0.066894
scalar MyScenario.node[140].veinsmobility 	startTime 	25200
scalar MyScenario.node[140].veinsmobility 	totalTime 	21.6
scalar MyScenario.node[140].veinsmobility 	stopTime 	25221.7
scalar MyScenario.node[140].veinsmobility 	minSpeed 	0.24928587172762
scalar MyScenario.node[140].veinsmobility 	maxSpeed 	17.200888741521
scalar MyScenario.node[140].veinsmobility 	totalDistance 	220.40295319629
scalar MyScenario.node[140].veinsmobility 	totalCO2Emission 	88.323660749617
scalar MyScenario.node[107].appl 	generatedWSMs 	0
scalar MyScenario.node[107].appl 	receivedWSMs 	0
scalar MyScenario.node[107].appl 	generatedBSMs 	22
scalar MyScenario.node[107].appl 	receivedBSMs 	806
scalar MyScenario.node[107].appl 	generatedWSAs 	0
scalar MyScenario.node[107].appl 	receivedWSAs 	0
scalar MyScenario.node[107].nic.phy80211p 	busyTime 	0.003845137614679
scalar MyScenario.node[107].nic.mac1609_4 	ReceivedUnicastPackets 	0
scalar MyScenario.node[107].nic.mac1609_4 	ReceivedBroadcasts 	806
scalar MyScenario.node[107].nic.mac1609_4 	SentPackets 	22
scalar MyScenario.node[107].nic.mac1609_4 	SNIRLostPackets 	0
scalar MyScenario.node[107].nic.mac1609_4 	RXTXLostPackets 	0
scalar MyScenario.node[107].nic.mac1609_4 	TotalLostPackets 	0
scalar MyScenario.node[107].nic.mac1609_4 	DroppedPacketsInMac 	0
scalar MyScenario.node[107].nic.mac1609_4 	TooLittleTime 	0
scalar MyScenario.node[107].nic.mac1609_4 	TimesIntoBackoff 	22
scalar MyScenario.node[107].nic.mac1609_4 	SlotsBackoff 	38
scalar MyScenario.node[107].nic.mac1609_4 	NumInternalContention 	0
scalar MyScenario.node[107].nic.mac1609_4 	totalBusyTime 	0.086134
scalar MyScenario.node[107].veinsmobility 	startTime 	25200
scalar MyScenario.node[107].veinsmobility 	totalTime 	21.7
scalar MyScenario.node[107].veinsmobility 	stopTime 	25221.8
scalar MyScenario.node[107].veinsmobility 	minSpeed 	0
scalar MyScenario.node[107].veinsmobility 	maxSpeed 	13.719005171548
scalar MyScenario.node[107].veinsmobility 	totalDistance 	248.48352841392
scalar MyScenario.node[107].veinsmobility 	totalCO2Emission 	68.940069449819
scalar MyScenario.node[75].appl 	generatedWSMs 	0
scalar MyScenario.node[75].appl 	receivedWSMs 	0
scalar MyScenario.node[75].appl 	generatedBSMs 	22
scalar MyScenario.node[75].appl 	receivedBSMs 	686
scalar MyScenario.node[75].appl 	generatedWSAs 	0
scalar MyScenario.node[75].appl 	receivedWSAs 	0
scalar MyScenario.node[75].nic.phy80211p 	busyTime 	0.0032807272727273
scalar MyScenario.node[75].nic.mac1609_4 	ReceivedUnicastPackets 	0
scalar MyScenario.node[75].nic.mac1609_4 	ReceivedBroadcasts 	686
scalar MyScenario.node[75].nic.mac1609_4 	SentPackets 	22
scalar MyScenario.node[75].nic.mac1609_4 	SNIRLostPackets 	8
scalar MyScenario.node[75].nic.mac1609_4 	RXTXLostPackets 	0
scalar MyScenario.node[75].nic.mac1609_4 	TotalLostPackets 	8
scalar MyScenario.node[75].nic.mac1609_4 	DroppedPacketsInMac 	0
scalar MyScenario.node[75].nic.mac1609_4 	TooLittleTime 	0
scalar MyScenario.node[75].nic.mac1609_4 	TimesIntoBackoff 	22
scalar MyScenario.node[75].nic.mac1609_4 	SlotsBackoff 	37
scalar MyScenario.node[75].nic.mac1609_4 	NumInternalContention 	0
scalar MyScenario.node[75].nic.mac1609_4 	totalBusyTime 	0.07407
scalar MyScenario.node[75].veinsmobility 	startTime 	25200
scalar MyScenario.node[75].veinsmobility 	totalTime 	21.9
scalar MyScenario.node[75].veinsmobility 	stopTime 	25222
scalar MyScenario.node[75].veinsmobility 	minSpeed 	27.139473806531
scalar MyScenario.node[75].veinsmobility 	maxSpeed 	34.175985299813
scalar MyScenario.node[75].veinsmobility 	totalDistance 	720.26673658912
scalar MyScenario.node[75].veinsmobility 	totalCO2Emission 	114.04763906391
scalar MyScenario.node[7].appl 	generatedWSMs 	0
scalar MyScenario.node[7].appl 	receivedWSMs 	0
scalar MyScenario.node[7].appl 	generatedBSMs 	23
scalar MyScenario.node[7].appl 	receivedBSMs 	696
scalar MyScenario.node[7].appl 	generatedWSAs 	0
scalar MyScenario.node[7].appl 	receivedWSAs 	0
scalar MyScenario.node[7].nic.phy80211p 	busyTime 	0.0032552466367713
scalar MyScenario.node[7].nic.mac1609_4 	ReceivedUnicastPackets 	0
scalar MyScenario.node[7].nic.mac1609_4 	ReceivedBroadcasts 	696
scalar MyScenario.node[7].nic.mac1609_4 	SentPackets 	23
scalar MyScenario.node[7].nic.mac1609_4 	SNIRLostPackets 	2
scalar MyScenario.node[7].nic.mac1609_4 	RXTXLostPackets 	4
scalar MyScenario.node[7].nic.mac1609_4 	TotalLostPackets 	6
scalar MyScenario.node[7].nic.mac1609_4 	DroppedPacketsInMac 	0
scalar MyScenario.node[7].nic.mac1609_4 	TooLittleTime 	0
scalar MyScenario.node[7].nic.mac1609_4 	TimesIntoBackoff 	23
scalar MyScenario.node[7].nic.mac1609_4 	SlotsBackoff 	27
scalar MyScenario.node[7].nic.mac1609_4 	NumInternalContention 	0
scalar MyScenario.node[7].nic.mac1609_4 	totalBusyTime 	0.074903
scalar MyScenario.node[7].veinsmobility 	startTime 	25200
scalar MyScenario.node[7].veinsmobility 	totalTime 	22.2
scalar MyScenario.node[7].veinsmobility 	stopTime 	25222.3
scalar MyScenario.node[7].veinsmobility 	minSpeed 	33.085777986296
scalar MyScenario.node[7].veinsmobility 	maxSpeed 	33.225718253659
scalar MyScenario.node[7].veinsmobility 	totalDistance 	736.85951623036
scalar MyScenario.node[7].veinsmobility 	totalCO2Emission 	138.47486065286
scalar MyScenario.node[229].appl 	generatedWSMs 	0
scalar MyScenario.node[229].appl 	receivedWSMs 	0
scalar MyScenario.node[229].appl 	generatedBSMs 	14
scalar MyScenario.node[229].appl 	receivedBSMs 	143
scalar MyScenario.node[229].appl 	generatedWSAs 	0
scalar MyScenario.node[229].appl 	receivedWSAs 	0
scalar MyScenario.node[229].nic.phy80211p 	busyTime 	0.0011098507462687
scalar MyScenario.node[229].nic.mac1609_4 	ReceivedUnicastPackets 	0
scalar MyScenario.node[229].nic.mac1609_4 	ReceivedBroadcasts 	143
scalar MyScenario.node[229].nic.mac1609_4 	SentPackets 	14
scalar MyScenario.node[229].nic.mac1609_4 	SNIRLostPackets 	0
scalar MyScenario.node[229].nic.mac1609_4 	RXTXLostPackets 	0
scalar MyScenario.node[229].nic.mac1609_4 	TotalLostPackets 	0
scalar MyScenario.node[229].nic.mac1609_4 	DroppedPacketsInMac 	0
scalar MyScenario.node[229].nic.mac1609_4 	TooLittleTime 	0
scalar MyScenario.node[229].nic.mac1609_4 	TimesIntoBackoff 	14
scalar MyScenario.node[229].nic.mac1609_4 	SlotsBackoff 	20
scalar MyScenario.node[229].nic.mac1609_4 	NumInternalContention 	0
scalar MyScenario.node[229].nic.mac1609_4 	totalBusyTime 	0.016342
scalar MyScenario.node[229].veinsmobility 	startTime 	25209.1
scalar MyScenario.node[229].veinsmobility 	totalTime 	13.3
scalar MyScenario.node[229].veinsmobility 	stopTime 	25222.5
scalar MyScenario.node[229].veinsmobility 	minSpeed 	14.227598732558
scalar MyScenario.node[229].veinsmobility 	maxSpeed 	14.357127041869
scalar MyScenario.node[229].veinsmobility 	totalDistance 	190.11275204746
scalar MyScenario.node[229].veinsmobility 	totalCO2Emission 	31.121918306602
scalar MyScenario.node[123].appl 	generatedWSMs 	0
scalar MyScenario.node[123].appl 	receivedWSMs 	0
scalar MyScenario.node[123].appl 	generatedBSMs 	22
scalar MyScenario.node[123].appl 	receivedBSMs 	327
scalar MyScenario.node[123].appl 	generatedWSAs 	0
scalar MyScenario.node[123].appl 	receivedWSAs 	0
scalar MyScenario.node[123].nic.phy80211p 	busyTime 	0.0014915789473684
scalar MyScenario.node[123].nic.mac1609_4 	ReceivedUnicastPackets 	0
scalar MyScenario.node[123].nic.mac1609_4 	ReceivedBroadcasts 	327
scalar MyScenario.node[123].nic.mac1609_4 	SentPackets 	22
scalar MyScenario.node[123].nic.mac1609_4 	SNIRLostPackets 	0
scalar MyScenario.node[123].nic.mac1609_4 	RXTXLostPackets 	0
scalar MyScenario.node[123].nic.mac1609_4 	TotalLostPackets 	0
scalar MyScenario.node[123].nic.mac1609_4 	DroppedPacketsInMac 	0
scalar MyScenario.node[123].nic.mac1609_4 	TooLittleTime 	0
scalar MyScenario.node[123].nic.mac1609_4 	TimesIntoBackoff 	22
scalar MyScenario.node[123].nic.mac1609_4 	SlotsBackoff 	34
scalar MyScenario.node[123].nic.mac1609_4 	NumInternalContention 	0
scalar MyScenario.node[123].nic.mac1609_4 	totalBusyTime 	0.036318
scalar MyScenario.node[123].veinsmobility 	startTime 	25200
scalar MyScenario.node[123].veinsmobility 	totalTime 	22.7
scalar MyScenario.node[123].veinsmobility 	stopTime 	25222.8
scalar MyScenario.node[123].veinsmobility 	minSpeed 	0
scalar MyScenario.node[123].veinsmobility 	maxSpeed 	13.147949661417
scalar MyScenario.node[123].veinsmobility 	totalDistance 	260.51403190092
scalar MyScenario.node[123].veinsmobility 	totalCO2Emission 	65.776421980366
scalar MyScenario.node[115].appl 	generatedWSMs 	0
scalar MyScenario.node[115].appl 	receivedWSMs 	0
scalar MyScenario.node[115].appl 	generatedBSMs 	23
scalar MyScenario.node[115].appl 	receivedBSMs 	743
scalar MyScenario.node[115].appl 	generatedWSAs 	0
scalar MyScenario.node[115].appl 	receivedWSAs 	0
scalar MyScenario.node[115].nic.phy80211p 	busyTime 	0.003368695652174
scalar MyScenario.node[115].nic.mac1609_4 	ReceivedUnicastPackets 	0
scalar MyScenario.node[115].nic.mac1609_4 	ReceivedBroadcasts 	743
scalar MyScenario.node[115].nic.mac1609_4 	SentPackets 	23
scalar MyScenario.node[115].nic.mac1609_4 	SNIRLostPackets 	2
scalar MyScenario.node[115].nic.mac1609_4 	RXTXLostPackets 	0
scalar MyScenario.node[115].nic.mac1609_4 	TotalLostPackets 	2
scalar MyScenario.node[115].nic.mac1609_4 	DroppedPacketsInMac 	0
scalar MyScenario.node[115].nic.mac1609_4 	TooLittleTime 	0
scalar MyScenario.node[115].nic.mac1609_4 	TimesIntoBackoff 	23
scalar MyScenario.node[115].nic.mac1609_4 	SlotsBackoff 	32
scalar MyScenario.node[115].nic.mac1609_4 	NumInternalContention 	0
scalar MyScenario.node[115].nic.mac1609_4 	totalBusyTime 	0.079791
scalar MyScenario.node[115].veinsmobility 	startTime 	25200
scalar MyScenario.node[115].veinsmobility 	totalTime 	22.9
scalar MyScenario.node[115].veinsmobility 	stopTime 	25223
scalar MyScenario.node[115].veinsmobility 	minSpeed 	0.98867743710256
scalar MyScenario.node[115].veinsmobility 	maxSpeed 	12.674620858319
scalar MyScenario.node[115].veinsmobility 	totalDistance 	240.92172194815
scalar MyScenario.node[115].veinsmobility 	totalCO2Emission 	62.027599998986
scalar MyScenario.node[227].appl 	generatedWSMs 	0
scalar MyScenario.node[227].appl 	receivedWSMs 	0
scalar MyScenario.node[227].appl 	generatedBSMs 	14
scalar MyScenario.node[227].appl 	receivedBSMs 	161
scalar MyScenario.node[227].appl 	generatedWSAs 	0
scalar MyScenario.node[227].appl 	receivedWSAs 	0
scalar MyScenario.node[227].nic.phy80211p 	busyTime 	0.0011547586206897
scalar MyScenario.node[227].nic.mac1609_4 	ReceivedUnicastPackets 	0
scalar MyScenario.node[227].nic.mac1609_4 	ReceivedBroadcasts 	161
scalar MyScenario.node[227].nic.mac1609_4 	SentPackets 	14
scalar MyScenario.node[227].nic.mac1609_4 	SNIRLostPackets 	0
scalar MyScenario.node[227].nic.mac1609_4 	RXTXLostPackets 	0
scalar MyScenario.node[227].nic.mac1609_4 	TotalLostPackets 	0
scalar MyScenario.node[227].nic.mac1609_4 	DroppedPacketsInMac 	0
scalar MyScenario.node[227].nic.mac1609_4 	TooLittleTime 	0
scalar MyScenario.node[227].nic.mac1609_4 	TimesIntoBackoff 	14
scalar MyScenario.node[227].nic.mac1609_4 	SlotsBackoff 	25
scalar MyScenario.node[227].nic.mac1609_4 	NumInternalContention 	0
[...]
scalar MyScenario.node[466].nic.mac1609_4 	SlotsBackoff 	15
scalar MyScenario.node[466].nic.mac1609_4 	NumInternalContention 	0
scalar MyScenario.node[466].nic.mac1609_4 	totalBusyTime 	0.011864
scalar MyScenario.node[466].veinsmobility 	startTime 	25292.3
scalar MyScenario.node[466].veinsmobility 	totalTime 	7.7
scalar MyScenario.node[466].veinsmobility 	stopTime 	25300
scalar MyScenario.node[466].veinsmobility 	minSpeed 	13.371974757636
scalar MyScenario.node[466].veinsmobility 	maxSpeed 	13.728467596868
scalar MyScenario.node[466].veinsmobility 	totalDistance 	104.81337255099
scalar MyScenario.node[466].veinsmobility 	totalCO2Emission 	19.825315603335
scalar MyScenario.node[274].appl 	generatedWSMs 	0
scalar MyScenario.node[274].appl 	receivedWSMs 	0
scalar MyScenario.node[274].appl 	generatedBSMs 	73
scalar MyScenario.node[274].appl 	receivedBSMs 	631
scalar MyScenario.node[274].appl 	generatedWSAs 	0
scalar MyScenario.node[274].appl 	receivedWSAs 	0
scalar MyScenario.node[274].nic.phy80211p 	busyTime 	0.00090019204389575
scalar MyScenario.node[274].nic.mac1609_4 	ReceivedUnicastPackets 	0
scalar MyScenario.node[274].nic.mac1609_4 	ReceivedBroadcasts 	631
scalar MyScenario.node[274].nic.mac1609_4 	SentPackets 	73
scalar MyScenario.node[274].nic.mac1609_4 	SNIRLostPackets 	0
scalar MyScenario.node[274].nic.mac1609_4 	RXTXLostPackets 	0
scalar MyScenario.node[274].nic.mac1609_4 	TotalLostPackets 	0
scalar MyScenario.node[274].nic.mac1609_4 	DroppedPacketsInMac 	0
scalar MyScenario.node[274].nic.mac1609_4 	TooLittleTime 	0
scalar MyScenario.node[274].nic.mac1609_4 	TimesIntoBackoff 	73
scalar MyScenario.node[274].nic.mac1609_4 	SlotsBackoff 	114
scalar MyScenario.node[274].nic.mac1609_4 	NumInternalContention 	0
scalar MyScenario.node[274].nic.mac1609_4 	totalBusyTime 	0.073289
scalar MyScenario.node[274].veinsmobility 	startTime 	25227.1
scalar MyScenario.node[274].veinsmobility 	totalTime 	72.9
scalar MyScenario.node[274].veinsmobility 	stopTime 	25300
scalar MyScenario.node[274].veinsmobility 	minSpeed 	0.29619762988645
scalar MyScenario.node[274].veinsmobility 	maxSpeed 	16.755492266907
scalar MyScenario.node[274].veinsmobility 	totalDistance 	803.44725841273
scalar MyScenario.node[274].veinsmobility 	totalCO2Emission 	258.48310849295
scalar MyScenario.node[272].appl 	generatedWSMs 	0
scalar MyScenario.node[272].appl 	receivedWSMs 	0
scalar MyScenario.node[272].appl 	generatedBSMs 	74
scalar MyScenario.node[272].appl 	receivedBSMs 	606
scalar MyScenario.node[272].appl 	generatedWSAs 	0
scalar MyScenario.node[272].appl 	receivedWSAs 	0
scalar MyScenario.node[272].nic.phy80211p 	busyTime 	0.00085423545331529
scalar MyScenario.node[272].nic.mac1609_4 	ReceivedUnicastPackets 	0
scalar MyScenario.node[272].nic.mac1609_4 	ReceivedBroadcasts 	606
scalar MyScenario.node[272].nic.mac1609_4 	SentPackets 	74
scalar MyScenario.node[272].nic.mac1609_4 	SNIRLostPackets 	1
scalar MyScenario.node[272].nic.mac1609_4 	RXTXLostPackets 	0
scalar MyScenario.node[272].nic.mac1609_4 	TotalLostPackets 	1
scalar MyScenario.node[272].nic.mac1609_4 	DroppedPacketsInMac 	0
scalar MyScenario.node[272].nic.mac1609_4 	TooLittleTime 	0
scalar MyScenario.node[272].nic.mac1609_4 	TimesIntoBackoff 	74
scalar MyScenario.node[272].nic.mac1609_4 	SlotsBackoff 	96
scalar MyScenario.node[272].nic.mac1609_4 	NumInternalContention 	0
scalar MyScenario.node[272].nic.mac1609_4 	totalBusyTime 	0.070898
scalar MyScenario.node[272].veinsmobility 	startTime 	25226.1
scalar MyScenario.node[272].veinsmobility 	totalTime 	73.9
scalar MyScenario.node[272].veinsmobility 	stopTime 	25300
scalar MyScenario.node[272].veinsmobility 	minSpeed 	0.27966275490029
scalar MyScenario.node[272].veinsmobility 	maxSpeed 	17.560644193128
scalar MyScenario.node[272].veinsmobility 	totalDistance 	845.61203049035
scalar MyScenario.node[272].veinsmobility 	totalCO2Emission 	264.56850876188
scalar MyScenario.node[278].appl 	generatedWSMs 	0
scalar MyScenario.node[278].appl 	receivedWSMs 	0
scalar MyScenario.node[278].appl 	generatedBSMs 	71
scalar MyScenario.node[278].appl 	receivedBSMs 	1202
scalar MyScenario.node[278].appl 	generatedWSAs 	0
scalar MyScenario.node[278].appl 	receivedWSAs 	0
scalar MyScenario.node[278].nic.phy80211p 	busyTime 	0.0017746382978724
scalar MyScenario.node[278].nic.mac1609_4 	ReceivedUnicastPackets 	0
scalar MyScenario.node[278].nic.mac1609_4 	ReceivedBroadcasts 	1202
scalar MyScenario.node[278].nic.mac1609_4 	SentPackets 	71
scalar MyScenario.node[278].nic.mac1609_4 	SNIRLostPackets 	1
scalar MyScenario.node[278].nic.mac1609_4 	RXTXLostPackets 	0
scalar MyScenario.node[278].nic.mac1609_4 	TotalLostPackets 	1
scalar MyScenario.node[278].nic.mac1609_4 	DroppedPacketsInMac 	0
scalar MyScenario.node[278].nic.mac1609_4 	TooLittleTime 	0
scalar MyScenario.node[278].nic.mac1609_4 	TimesIntoBackoff 	71
scalar MyScenario.node[278].nic.mac1609_4 	SlotsBackoff 	111
scalar MyScenario.node[278].nic.mac1609_4 	NumInternalContention 	0
scalar MyScenario.node[278].nic.mac1609_4 	totalBusyTime 	0.132567
scalar MyScenario.node[278].veinsmobility 	startTime 	25229.5
scalar MyScenario.node[278].veinsmobility 	totalTime 	70.5
scalar MyScenario.node[278].veinsmobility 	stopTime 	25300
scalar MyScenario.node[278].veinsmobility 	minSpeed 	13.770172209461
scalar MyScenario.node[278].veinsmobility 	maxSpeed 	36.128794214807
scalar MyScenario.node[278].veinsmobility 	totalDistance 	1582.4378096753
scalar MyScenario.node[278].veinsmobility 	totalCO2Emission 	269.66720931628
scalar MyScenario.node[413].appl 	generatedWSMs 	0
scalar MyScenario.node[413].appl 	receivedWSMs 	0
scalar MyScenario.node[413].appl 	generatedBSMs 	24
scalar MyScenario.node[413].appl 	receivedBSMs 	806
scalar MyScenario.node[413].appl 	generatedWSAs 	0
scalar MyScenario.node[413].appl 	receivedWSAs 	0
scalar MyScenario.node[413].nic.phy80211p 	busyTime 	0.0035657142857143
scalar MyScenario.node[413].nic.mac1609_4 	ReceivedUnicastPackets 	0
scalar MyScenario.node[413].nic.mac1609_4 	ReceivedBroadcasts 	806
scalar MyScenario.node[413].nic.mac1609_4 	SentPackets 	24
scalar MyScenario.node[413].nic.mac1609_4 	SNIRLostPackets 	10
scalar MyScenario.node[413].nic.mac1609_4 	RXTXLostPackets 	0
scalar MyScenario.node[413].nic.mac1609_4 	TotalLostPackets 	10
scalar MyScenario.node[413].nic.mac1609_4 	DroppedPacketsInMac 	0
scalar MyScenario.node[413].nic.mac1609_4 	TooLittleTime 	0
scalar MyScenario.node[413].nic.mac1609_4 	TimesIntoBackoff 	24
scalar MyScenario.node[413].nic.mac1609_4 	SlotsBackoff 	47
scalar MyScenario.node[413].nic.mac1609_4 	NumInternalContention 	0
scalar MyScenario.node[413].nic.mac1609_4 	totalBusyTime 	0.086968
scalar MyScenario.node[413].veinsmobility 	startTime 	25276.2
scalar MyScenario.node[413].veinsmobility 	totalTime 	23.8
scalar MyScenario.node[413].veinsmobility 	stopTime 	25300
scalar MyScenario.node[413].veinsmobility 	minSpeed 	4.536277608119e-14
scalar MyScenario.node[413].veinsmobility 	maxSpeed 	17.814318536095
scalar MyScenario.node[413].veinsmobility 	totalDistance 	80.673759927532
scalar MyScenario.node[413].veinsmobility 	totalCO2Emission 	26.627976252433
scalar MyScenario.node[185].appl 	generatedWSMs 	0
scalar MyScenario.node[185].appl 	receivedWSMs 	0
scalar MyScenario.node[185].appl 	generatedBSMs 	100
scalar MyScenario.node[185].appl 	receivedBSMs 	2420
scalar MyScenario.node[185].appl 	generatedWSAs 	0
scalar MyScenario.node[185].appl 	receivedWSAs 	0
scalar MyScenario.node[185].nic.phy80211p 	busyTime 	0.00252408
scalar MyScenario.node[185].nic.mac1609_4 	ReceivedUnicastPackets 	0
scalar MyScenario.node[185].nic.mac1609_4 	ReceivedBroadcasts 	2420
scalar MyScenario.node[185].nic.mac1609_4 	SentPackets 	100
scalar MyScenario.node[185].nic.mac1609_4 	SNIRLostPackets 	7
scalar MyScenario.node[185].nic.mac1609_4 	RXTXLostPackets 	0
scalar MyScenario.node[185].nic.mac1609_4 	TotalLostPackets 	7
scalar MyScenario.node[185].nic.mac1609_4 	DroppedPacketsInMac 	0
scalar MyScenario.node[185].nic.mac1609_4 	TooLittleTime 	0
scalar MyScenario.node[185].nic.mac1609_4 	TimesIntoBackoff 	100
scalar MyScenario.node[185].nic.mac1609_4 	SlotsBackoff 	162
scalar MyScenario.node[185].nic.mac1609_4 	NumInternalContention 	0
scalar MyScenario.node[185].nic.mac1609_4 	totalBusyTime 	0.262492
scalar MyScenario.node[185].veinsmobility 	startTime 	25200
scalar MyScenario.node[185].veinsmobility 	totalTime 	100
scalar MyScenario.node[185].veinsmobility 	stopTime 	25300
scalar MyScenario.node[185].veinsmobility 	minSpeed 	0
scalar MyScenario.node[185].veinsmobility 	maxSpeed 	13.821789993996
scalar MyScenario.node[185].veinsmobility 	totalDistance 	711.89256851993
scalar MyScenario.node[185].veinsmobility 	totalCO2Emission 	209.59928060198
scalar MyScenario.node[186].appl 	generatedWSMs 	0
scalar MyScenario.node[186].appl 	receivedWSMs 	0
scalar MyScenario.node[186].appl 	generatedBSMs 	100
scalar MyScenario.node[186].appl 	receivedBSMs 	2709
scalar MyScenario.node[186].appl 	generatedWSAs 	0
scalar MyScenario.node[186].appl 	receivedWSAs 	0
scalar MyScenario.node[186].nic.phy80211p 	busyTime 	0.0028225599999999
scalar MyScenario.node[186].nic.mac1609_4 	ReceivedUnicastPackets 	0
scalar MyScenario.node[186].nic.mac1609_4 	ReceivedBroadcasts 	2709
scalar MyScenario.node[186].nic.mac1609_4 	SentPackets 	100
scalar MyScenario.node[186].nic.mac1609_4 	SNIRLostPackets 	5
scalar MyScenario.node[186].nic.mac1609_4 	RXTXLostPackets 	0
scalar MyScenario.node[186].nic.mac1609_4 	TotalLostPackets 	5
scalar MyScenario.node[186].nic.mac1609_4 	DroppedPacketsInMac 	0
scalar MyScenario.node[186].nic.mac1609_4 	TooLittleTime 	0
scalar MyScenario.node[186].nic.mac1609_4 	TimesIntoBackoff 	100
scalar MyScenario.node[186].nic.mac1609_4 	SlotsBackoff 	162
scalar MyScenario.node[186].nic.mac1609_4 	NumInternalContention 	0
scalar MyScenario.node[186].nic.mac1609_4 	totalBusyTime 	0.292548
scalar MyScenario.node[186].veinsmobility 	startTime 	25200
scalar MyScenario.node[186].veinsmobility 	totalTime 	100
scalar MyScenario.node[186].veinsmobility 	stopTime 	25300
scalar MyScenario.node[186].veinsmobility 	minSpeed 	4.5366727976591e-14
scalar MyScenario.node[186].veinsmobility 	maxSpeed 	12.863952096687
scalar MyScenario.node[186].veinsmobility 	totalDistance 	723.96500473825
scalar MyScenario.node[186].veinsmobility 	totalCO2Emission 	215.22924049133
scalar MyScenario.node[187].appl 	generatedWSMs 	0
scalar MyScenario.node[187].appl 	receivedWSMs 	0
scalar MyScenario.node[187].appl 	generatedBSMs 	100
scalar MyScenario.node[187].appl 	receivedBSMs 	2488
scalar MyScenario.node[187].appl 	generatedWSAs 	0
scalar MyScenario.node[187].appl 	receivedWSAs 	0
scalar MyScenario.node[187].nic.phy80211p 	busyTime 	0.00259376
scalar MyScenario.node[187].nic.mac1609_4 	ReceivedUnicastPackets 	0
scalar MyScenario.node[187].nic.mac1609_4 	ReceivedBroadcasts 	2488
scalar MyScenario.node[187].nic.mac1609_4 	SentPackets 	100
scalar MyScenario.node[187].nic.mac1609_4 	SNIRLostPackets 	6
scalar MyScenario.node[187].nic.mac1609_4 	RXTXLostPackets 	0
scalar MyScenario.node[187].nic.mac1609_4 	TotalLostPackets 	6
scalar MyScenario.node[187].nic.mac1609_4 	DroppedPacketsInMac 	0
scalar MyScenario.node[187].nic.mac1609_4 	TooLittleTime 	0
scalar MyScenario.node[187].nic.mac1609_4 	TimesIntoBackoff 	100
scalar MyScenario.node[187].nic.mac1609_4 	SlotsBackoff 	160
scalar MyScenario.node[187].nic.mac1609_4 	NumInternalContention 	0
scalar MyScenario.node[187].nic.mac1609_4 	totalBusyTime 	0.269564
scalar MyScenario.node[187].veinsmobility 	startTime 	25200
scalar MyScenario.node[187].veinsmobility 	totalTime 	100
scalar MyScenario.node[187].veinsmobility 	stopTime 	25300
scalar MyScenario.node[187].veinsmobility 	minSpeed 	0
scalar MyScenario.node[187].veinsmobility 	maxSpeed 	12.785033961987
scalar MyScenario.node[187].veinsmobility 	totalDistance 	656.54301525758
scalar MyScenario.node[187].veinsmobility 	totalCO2Emission 	200.85236215856
scalar MyScenario.node[426].appl 	generatedWSMs 	0
scalar MyScenario.node[426].appl 	receivedWSMs 	0
scalar MyScenario.node[426].appl 	generatedBSMs 	19
scalar MyScenario.node[426].appl 	receivedBSMs 	90
scalar MyScenario.node[426].appl 	generatedWSAs 	0
scalar MyScenario.node[426].appl 	receivedWSAs 	0
scalar MyScenario.node[426].nic.phy80211p 	busyTime 	0.0004952380952381
scalar MyScenario.node[426].nic.mac1609_4 	ReceivedUnicastPackets 	0
scalar MyScenario.node[426].nic.mac1609_4 	ReceivedBroadcasts 	90
scalar MyScenario.node[426].nic.mac1609_4 	SentPackets 	19
scalar MyScenario.node[426].nic.mac1609_4 	SNIRLostPackets 	0
scalar MyScenario.node[426].nic.mac1609_4 	RXTXLostPackets 	0
scalar MyScenario.node[426].nic.mac1609_4 	TotalLostPackets 	0
scalar MyScenario.node[426].nic.mac1609_4 	DroppedPacketsInMac 	0
scalar MyScenario.node[426].nic.mac1609_4 	TooLittleTime 	0
scalar MyScenario.node[426].nic.mac1609_4 	TimesIntoBackoff 	19
scalar MyScenario.node[426].nic.mac1609_4 	SlotsBackoff 	32
scalar MyScenario.node[426].nic.mac1609_4 	NumInternalContention 	0
scalar MyScenario.node[426].nic.mac1609_4 	totalBusyTime 	0.011355
scalar MyScenario.node[426].veinsmobility 	startTime 	25281.1
scalar MyScenario.node[426].veinsmobility 	totalTime 	18.9
scalar MyScenario.node[426].veinsmobility 	stopTime 	25300
scalar MyScenario.node[426].veinsmobility 	minSpeed 	13.780188078303
scalar MyScenario.node[426].veinsmobility 	maxSpeed 	13.908194962361
scalar MyScenario.node[426].veinsmobility 	totalDistance 	261.53717578017
scalar MyScenario.node[426].veinsmobility 	totalCO2Emission 	43.389001038811
scalar MyScenario.node[437].appl 	generatedWSMs 	0
scalar MyScenario.node[437].appl 	receivedWSMs 	0
scalar MyScenario.node[437].appl 	generatedBSMs 	15
scalar MyScenario.node[437].appl 	receivedBSMs 	593
scalar MyScenario.node[437].appl 	generatedWSAs 	0
scalar MyScenario.node[437].appl 	receivedWSAs 	0
scalar MyScenario.node[437].nic.phy80211p 	busyTime 	0.0040852287581699
scalar MyScenario.node[437].nic.mac1609_4 	ReceivedUnicastPackets 	0
scalar MyScenario.node[437].nic.mac1609_4 	ReceivedBroadcasts 	593
scalar MyScenario.node[437].nic.mac1609_4 	SentPackets 	15
scalar MyScenario.node[437].nic.mac1609_4 	SNIRLostPackets 	8
scalar MyScenario.node[437].nic.mac1609_4 	RXTXLostPackets 	0
scalar MyScenario.node[437].nic.mac1609_4 	TotalLostPackets 	8
scalar MyScenario.node[437].nic.mac1609_4 	DroppedPacketsInMac 	0
scalar MyScenario.node[437].nic.mac1609_4 	TooLittleTime 	0
scalar MyScenario.node[437].nic.mac1609_4 	TimesIntoBackoff 	15
scalar MyScenario.node[437].nic.mac1609_4 	SlotsBackoff 	17
scalar MyScenario.node[437].nic.mac1609_4 	NumInternalContention 	0
scalar MyScenario.node[437].nic.mac1609_4 	totalBusyTime 	0.063559
scalar MyScenario.node[437].veinsmobility 	startTime 	25284.7
scalar MyScenario.node[437].veinsmobility 	totalTime 	15.3
scalar MyScenario.node[437].veinsmobility 	stopTime 	25300
scalar MyScenario.node[437].veinsmobility 	minSpeed 	29.099816235632
scalar MyScenario.node[437].veinsmobility 	maxSpeed 	35.120251931265
scalar MyScenario.node[437].veinsmobility 	totalDistance 	527.50613756322
scalar MyScenario.node[437].veinsmobility 	totalCO2Emission 	146.74799948893
scalar MyScenario.node[436].appl 	generatedWSMs 	0
scalar MyScenario.node[436].appl 	receivedWSMs 	0
scalar MyScenario.node[436].appl 	generatedBSMs 	16
scalar MyScenario.node[436].appl 	receivedBSMs 	143
scalar MyScenario.node[436].appl 	generatedWSAs 	0
scalar MyScenario.node[436].appl 	receivedWSAs 	0
scalar MyScenario.node[436].nic.phy80211p 	busyTime 	0.00093534591194969
scalar MyScenario.node[436].nic.mac1609_4 	ReceivedUnicastPackets 	0
scalar MyScenario.node[436].nic.mac1609_4 	ReceivedBroadcasts 	143
scalar MyScenario.node[436].nic.mac1609_4 	SentPackets 	16
scalar MyScenario.node[436].nic.mac1609_4 	SNIRLostPackets 	0
scalar MyScenario.node[436].nic.mac1609_4 	RXTXLostPackets 	0
scalar MyScenario.node[436].nic.mac1609_4 	TotalLostPackets 	0
scalar MyScenario.node[436].nic.mac1609_4 	DroppedPacketsInMac 	0
scalar MyScenario.node[436].nic.mac1609_4 	TooLittleTime 	0
scalar MyScenario.node[436].nic.mac1609_4 	TimesIntoBackoff 	16
scalar MyScenario.node[436].nic.mac1609_4 	SlotsBackoff 	25
scalar MyScenario.node[436].nic.mac1609_4 	NumInternalContention 	0
scalar MyScenario.node[436].nic.mac1609_4 	totalBusyTime 	0.016552
scalar MyScenario.node[436].veinsmobility 	startTime 	25284.1
scalar MyScenario.node[436].veinsmobility 	totalTime 	15.9
scalar MyScenario.node[436].veinsmobility 	stopTime 	25300
scalar MyScenario.node[436].veinsmobility 	minSpeed 	3.2661191569093
scalar MyScenario.node[436].veinsmobility 	maxSpeed 	17.555239278244
scalar MyScenario.node[436].veinsmobility 	totalDistance 	215.48788162884
scalar MyScenario.node[436].veinsmobility 	totalCO2Emission 	33.230749426484
scalar MyScenario.node[192].appl 	generatedWSMs 	0
scalar MyScenario.node[192].appl 	receivedWSMs 	0
scalar MyScenario.node[192].appl 	generatedBSMs 	100
scalar MyScenario.node[192].appl 	receivedBSMs 	1962
scalar MyScenario.node[192].appl 	generatedWSAs 	0
scalar MyScenario.node[192].appl 	receivedWSAs 	0
scalar MyScenario.node[192].nic.phy80211p 	busyTime 	0.00204048
scalar MyScenario.node[192].nic.mac1609_4 	ReceivedUnicastPackets 	0
scalar MyScenario.node[192].nic.mac1609_4 	ReceivedBroadcasts 	1962
scalar MyScenario.node[192].nic.mac1609_4 	SentPackets 	100
scalar MyScenario.node[192].nic.mac1609_4 	SNIRLostPackets 	0
scalar MyScenario.node[192].nic.mac1609_4 	RXTXLostPackets 	0
scalar MyScenario.node[192].nic.mac1609_4 	TotalLostPackets 	0
scalar MyScenario.node[192].nic.mac1609_4 	DroppedPacketsInMac 	0
scalar MyScenario.node[192].nic.mac1609_4 	TooLittleTime 	0
scalar MyScenario.node[192].nic.mac1609_4 	TimesIntoBackoff 	100
scalar MyScenario.node[192].nic.mac1609_4 	SlotsBackoff 	142
scalar MyScenario.node[192].nic.mac1609_4 	NumInternalContention 	0
scalar MyScenario.node[192].nic.mac1609_4 	totalBusyTime 	0.214548
scalar MyScenario.node[192].veinsmobility 	startTime 	25200
scalar MyScenario.node[192].veinsmobility 	totalTime 	100
scalar MyScenario.node[192].veinsmobility 	stopTime 	25300
scalar MyScenario.node[192].veinsmobility 	minSpeed 	0
scalar MyScenario.node[192].veinsmobility 	maxSpeed 	18.154058738085
scalar MyScenario.node[192].veinsmobility 	totalDistance 	1387.2795318242
scalar MyScenario.node[192].veinsmobility 	totalCO2Emission 	271.33701253703
scalar MyScenario.node[400].appl 	generatedWSMs 	0
scalar MyScenario.node[400].appl 	receivedWSMs 	0
scalar MyScenario.node[400].appl 	generatedBSMs 	29
scalar MyScenario.node[400].appl 	receivedBSMs 	234
scalar MyScenario.node[400].appl 	generatedWSAs 	0
scalar MyScenario.node[400].appl 	receivedWSAs 	0
scalar MyScenario.node[400].nic.phy80211p 	busyTime 	0.00085090909090897
scalar MyScenario.node[400].nic.mac1609_4 	ReceivedUnicastPackets 	0
scalar MyScenario.node[400].nic.mac1609_4 	ReceivedBroadcasts 	234
scalar MyScenario.node[400].nic.mac1609_4 	SentPackets 	29
scalar MyScenario.node[400].nic.mac1609_4 	SNIRLostPackets 	0
scalar MyScenario.node[400].nic.mac1609_4 	RXTXLostPackets 	0
scalar MyScenario.node[400].nic.mac1609_4 	TotalLostPackets 	0
scalar MyScenario.node[400].nic.mac1609_4 	DroppedPacketsInMac 	0
scalar MyScenario.node[400].nic.mac1609_4 	TooLittleTime 	0
scalar MyScenario.node[400].nic.mac1609_4 	TimesIntoBackoff 	29
scalar MyScenario.node[400].nic.mac1609_4 	SlotsBackoff 	45
scalar MyScenario.node[400].nic.mac1609_4 	NumInternalContention 	0
scalar MyScenario.node[400].nic.mac1609_4 	totalBusyTime 	0.027381
scalar MyScenario.node[400].veinsmobility 	startTime 	25271.4
scalar MyScenario.node[400].veinsmobility 	totalTime 	28.6
scalar MyScenario.node[400].veinsmobility 	stopTime 	25300
scalar MyScenario.node[400].veinsmobility 	minSpeed 	3.2732037134409
scalar MyScenario.node[400].veinsmobility 	maxSpeed 	14.077536207135
scalar MyScenario.node[400].veinsmobility 	totalDistance 	346.22648857812
scalar MyScenario.node[400].veinsmobility 	totalCO2Emission 	89.093848974524
