version 2
run AttackerType4-15-20180205-17:20:04-122171
attr configname AttackerType4
attr datetime 20180205-17:20:04
attr experiment AttackerType4
attr inifile omnetpp_15.ini
attr iterationvars "$start=5, $0=0.1"
attr iterationvarsf start=5,0.1-
attr measurement "$start=5, $0=0.1"
attr network MyScenario
attr processid 122171
attr repetition 0
attr replication #0
attr resultdir results
attr runnumber 15
attr seedset 0
attr start 5
param **.**.**.debug false
param **.**.nic.**.debug false
param **.coreDebug false
param **.debug false
param *.**.nic.mac1609_4.bitrate 6Mbps
param *.**.nic.mac1609_4.txPower 20mW
param *.**.nic.mac1609_4.useServiceChannel false
param *.**.nic.phy80211p.analogueModels "xmldoc(\"config.xml\")"
param *.**.nic.phy80211p.antenna "xmldoc(\"antenna.xml\", \"/root/Antenna[@id='monopole']\")"
param *.**.nic.phy80211p.decider "xmldoc(\"config.xml\")"
param *.**.nic.phy80211p.sensitivity -89dBm
param *.**.nic.phy80211p.thermalNoise -110dBm
param *.**.nic.phy80211p.usePropagationDelay true
param *.**.nic.phy80211p.useThermalNoise true
param *.**.veinsmobility.x 0
param *.**.veinsmobility.y 0
param *.**.veinsmobility.z 1.895
param *.**.veinsmobilityType.debug false
param *.annotations.draw false
param *.connectionManager.drawMaxIntfDist false
param *.connectionManager.maxInterfDist 2600m
param *.connectionManager.sendDirect true
param *.manager.autoShutdown true
param *.manager.configFile "\"dua.static.sumocfg\""
param *.manager.firstStepAt 5h
param *.manager.host "\"localhost\""
param *.manager.launchConfig "xmldoc(\"luxembourg.launchd.xml\")"
param *.manager.roiRects "\"2300,5400-6300,6300\""
param *.manager.seed 0
param *.manager.updateInterval 0.1s
param *.node[*].appl.attackerProbability 0.1
param *.node[*].appl.attackerType 4
param *.node[*].appl.beaconInterval 1s
param *.node[*].appl.dataOnSch false
param *.node[*].appl.headerLength "80 bit"
param *.node[*].appl.sendBeacons true
param *.node[*].appl.traceGroundTruthJSONFile "\"GroundTruthJSONlog\""
param *.node[*].appl.traceJSONFile "\"JSONlog-\""
param *.node[*].applType "\"AttackerApp\""
param *.obstacles.debug false
param *.obstacles.obstacles "xmldoc(\"config.xml\", \"//AnalogueModel[@type='SimpleObstacleShadowing']/obstacles\")"
param *.playgroundSizeX 13640m
param *.playgroundSizeY 11500m
param *.playgroundSizeZ 50m

scalar _runattrs_ 	start 	5
scalar MyScenario.node[29].appl 	generatedWSMs 	0
scalar MyScenario.node[29].appl 	receivedWSMs 	0
scalar MyScenario.node[29].appl 	generatedBSMs 	3
scalar MyScenario.node[29].appl 	receivedBSMs 	9
scalar MyScenario.node[29].appl 	generatedWSAs 	0
scalar MyScenario.node[29].appl 	receivedWSAs 	0
scalar MyScenario.node[29].nic.phy80211p 	busyTime 	0.0002925
scalar MyScenario.node[29].nic.mac1609_4 	ReceivedUnicastPackets 	0
scalar MyScenario.node[29].nic.mac1609_4 	ReceivedBroadcasts 	9
scalar MyScenario.node[29].nic.mac1609_4 	SentPackets 	3
scalar MyScenario.node[29].nic.mac1609_4 	SNIRLostPackets 	0
scalar MyScenario.node[29].nic.mac1609_4 	RXTXLostPackets 	0
scalar MyScenario.node[29].nic.mac1609_4 	TotalLostPackets 	0
scalar MyScenario.node[29].nic.mac1609_4 	DroppedPacketsInMac 	0
scalar MyScenario.node[29].nic.mac1609_4 	TooLittleTime 	0
scalar MyScenario.node[29].nic.mac1609_4 	TimesIntoBackoff 	3
scalar MyScenario.node[29].nic.mac1609_4 	SlotsBackoff 	5
scalar MyScenario.node[29].nic.mac1609_4 	NumInternalContention 	0
scalar MyScenario.node[29].nic.mac1609_4 	totalBusyTime 	0.001251
scalar MyScenario.node[29].veinsmobility 	startTime 	18000
scalar MyScenario.node[29].veinsmobility 	totalTime 	3.1
scalar MyScenario.node[29].veinsmobility 	stopTime 	18003.2
scalar MyScenario.node[29].veinsmobility 	minSpeed 	0.27800422214717
scalar MyScenario.node[29].veinsmobility 	maxSpeed 	6.6294114321616
scalar MyScenario.node[29].veinsmobility 	totalDistance 	11.041841093284
scalar MyScenario.node[29].veinsmobility 	totalCO2Emission 	9.341136567084
scalar MyScenario.node[20].appl 	generatedWSMs 	0
scalar MyScenario.node[20].appl 	receivedWSMs 	0
scalar MyScenario.node[20].appl 	generatedBSMs 	6
scalar MyScenario.node[20].appl 	receivedBSMs 	16
scalar MyScenario.node[20].appl 	generatedWSAs 	0
scalar MyScenario.node[20].appl 	receivedWSAs 	0
scalar MyScenario.node[20].nic.phy80211p 	busyTime 	0.0002919298245614
scalar MyScenario.node[20].nic.mac1609_4 	ReceivedUnicastPackets 	0
scalar MyScenario.node[20].nic.mac1609_4 	ReceivedBroadcasts 	16
scalar MyScenario.node[20].nic.mac1609_4 	SentPackets 	6
scalar MyScenario.node[20].nic.mac1609_4 	SNIRLostPackets 	0
scalar MyScenario.node[20].nic.mac1609_4 	RXTXLostPackets 	0
scalar MyScenario.node[20].nic.mac1609_4 	TotalLostPackets 	0
scalar MyScenario.node[20].nic.mac1609_4 	DroppedPacketsInMac 	0
scalar MyScenario.node[20].nic.mac1609_4 	TooLittleTime 	0
scalar MyScenario.node[20].nic.mac1609_4 	TimesIntoBackoff 	6
scalar MyScenario.node[20].nic.mac1609_4 	SlotsBackoff 	11
scalar MyScenario.node[20].nic.mac1609_4 	NumInternalContention 	0
scalar MyScenario.node[20].nic.mac1609_4 	totalBusyTime 	0.002294
scalar MyScenario.node[20].veinsmobility 	startTime 	18000
scalar MyScenario.node[20].veinsmobility 	totalTime 	5.6
scalar MyScenario.node[20].veinsmobility 	stopTime 	18005.7
scalar MyScenario.node[20].veinsmobility 	minSpeed 	35.025406974593
scalar MyScenario.node[20].veinsmobility 	maxSpeed 	35.158148980843
scalar MyScenario.node[20].veinsmobility 	totalDistance 	196.77012594479
scalar MyScenario.node[20].veinsmobility 	totalCO2Emission 	38.040423937532
scalar MyScenario.node[24].appl 	generatedWSMs 	0
scalar MyScenario.node[24].appl 	receivedWSMs 	0
scalar MyScenario.node[24].appl 	generatedBSMs 	9
scalar MyScenario.node[24].appl 	receivedBSMs 	82
scalar MyScenario.node[24].appl 	generatedWSAs 	0
scalar MyScenario.node[24].appl 	receivedWSAs 	0
scalar MyScenario.node[24].nic.phy80211p 	busyTime 	0.00088833333333333
scalar MyScenario.node[24].nic.mac1609_4 	ReceivedUnicastPackets 	0
scalar MyScenario.node[24].nic.mac1609_4 	ReceivedBroadcasts 	82
scalar MyScenario.node[24].nic.mac1609_4 	SentPackets 	9
scalar MyScenario.node[24].nic.mac1609_4 	SNIRLostPackets 	0
scalar MyScenario.node[24].nic.mac1609_4 	RXTXLostPackets 	0
scalar MyScenario.node[24].nic.mac1609_4 	TotalLostPackets 	0
scalar MyScenario.node[24].nic.mac1609_4 	DroppedPacketsInMac 	0
scalar MyScenario.node[24].nic.mac1609_4 	TooLittleTime 	0
scalar MyScenario.node[24].nic.mac1609_4 	TimesIntoBackoff 	9
scalar MyScenario.node[24].nic.mac1609_4 	SlotsBackoff 	15
scalar MyScenario.node[24].nic.mac1609_4 	NumInternalContention 	0
scalar MyScenario.node[24].nic.mac1609_4 	totalBusyTime 	0.009473
scalar MyScenario.node[24].veinsmobility 	startTime 	18000
scalar MyScenario.node[24].veinsmobility 	totalTime 	9.5
scalar MyScenario.node[24].veinsmobility 	stopTime 	18009.6
scalar MyScenario.node[24].veinsmobility 	minSpeed 	0.68145697622096
scalar MyScenario.node[24].veinsmobility 	maxSpeed 	18.967632826965
scalar MyScenario.node[24].veinsmobility 	totalDistance 	98.08055653278
scalar MyScenario.node[24].veinsmobility 	totalCO2Emission 	60.671786113575
scalar MyScenario.node[1].appl 	generatedWSMs 	0
scalar MyScenario.node[1].appl 	receivedWSMs 	0
scalar MyScenario.node[1].appl 	generatedBSMs 	19
scalar MyScenario.node[1].appl 	receivedBSMs 	146
scalar MyScenario.node[1].appl 	generatedWSAs 	0
scalar MyScenario.node[1].appl 	receivedWSAs 	0
scalar MyScenario.node[1].nic.phy80211p 	busyTime 	0.00082075675675676
scalar MyScenario.node[1].nic.mac1609_4 	ReceivedUnicastPackets 	0
scalar MyScenario.node[1].nic.mac1609_4 	ReceivedBroadcasts 	146
scalar MyScenario.node[1].nic.mac1609_4 	SentPackets 	19
scalar MyScenario.node[1].nic.mac1609_4 	SNIRLostPackets 	0
scalar MyScenario.node[1].nic.mac1609_4 	RXTXLostPackets 	0
scalar MyScenario.node[1].nic.mac1609_4 	TotalLostPackets 	0
scalar MyScenario.node[1].nic.mac1609_4 	DroppedPacketsInMac 	0
scalar MyScenario.node[1].nic.mac1609_4 	TooLittleTime 	0
scalar MyScenario.node[1].nic.mac1609_4 	TimesIntoBackoff 	19
scalar MyScenario.node[1].nic.mac1609_4 	SlotsBackoff 	29
scalar MyScenario.node[1].nic.mac1609_4 	NumInternalContention 	0
scalar MyScenario.node[1].nic.mac1609_4 	totalBusyTime 	0.017179
scalar MyScenario.node[1].veinsmobility 	startTime 	18000
scalar MyScenario.node[1].veinsmobility 	totalTime 	18.4
scalar MyScenario.node[1].veinsmobility 	stopTime 	18018.5
scalar MyScenario.node[1].veinsmobility 	minSpeed 	37.445205531042
scalar MyScenario.node[1].veinsmobility 	maxSpeed 	37.595013030787
scalar MyScenario.node[1].veinsmobility 	totalDistance 	690.33826811413
scalar MyScenario.node[1].veinsmobility 	totalCO2Emission 	142.85041880607
scalar MyScenario.node[15].appl 	generatedWSMs 	0
scalar MyScenario.node[15].appl 	receivedWSMs 	0
scalar MyScenario.node[15].appl 	generatedBSMs 	22
scalar MyScenario.node[15].appl 	receivedBSMs 	189
scalar MyScenario.node[15].appl 	generatedWSAs 	0
scalar MyScenario.node[15].appl 	receivedWSAs 	0
scalar MyScenario.node[15].nic.phy80211p 	busyTime 	0.00091
scalar MyScenario.node[15].nic.mac1609_4 	ReceivedUnicastPackets 	0
scalar MyScenario.node[15].nic.mac1609_4 	ReceivedBroadcasts 	189
scalar MyScenario.node[15].nic.mac1609_4 	SentPackets 	22
scalar MyScenario.node[15].nic.mac1609_4 	SNIRLostPackets 	0
scalar MyScenario.node[15].nic.mac1609_4 	RXTXLostPackets 	0
scalar MyScenario.node[15].nic.mac1609_4 	TotalLostPackets 	0
scalar MyScenario.node[15].nic.mac1609_4 	DroppedPacketsInMac 	0
scalar MyScenario.node[15].nic.mac1609_4 	TooLittleTime 	0
scalar MyScenario.node[15].nic.mac1609_4 	TimesIntoBackoff 	22
scalar MyScenario.node[15].nic.mac1609_4 	SlotsBackoff 	37
scalar MyScenario.node[15].nic.mac1609_4 	NumInternalContention 	0
scalar MyScenario.node[15].nic.mac1609_4 	totalBusyTime 	0.021966
scalar MyScenario.node[15].veinsmobility 	startTime 	18000
scalar MyScenario.node[15].veinsmobility 	totalTime 	21.5
scalar MyScenario.node[15].veinsmobility 	stopTime 	18021.6
scalar MyScenario.node[15].veinsmobility 	minSpeed 	0.27887594519323
scalar MyScenario.node[15].veinsmobility 	maxSpeed 	15.217190501239
scalar MyScenario.node[15].veinsmobility 	totalDistance 	245.08810899959
scalar MyScenario.node[15].veinsmobility 	totalCO2Emission 	68.904290015356
scalar MyScenario.node[41].appl 	generatedWSMs 	0
scalar MyScenario.node[41].appl 	receivedWSMs 	0
scalar MyScenario.node[41].appl 	generatedBSMs 	15
scalar MyScenario.node[41].appl 	receivedBSMs 	20
scalar MyScenario.node[41].appl 	generatedWSAs 	0
scalar MyScenario.node[41].appl 	receivedWSAs 	0
scalar MyScenario.node[41].nic.phy80211p 	busyTime 	0.00013506493506495
scalar MyScenario.node[41].nic.mac1609_4 	ReceivedUnicastPackets 	0
scalar MyScenario.node[41].nic.mac1609_4 	ReceivedBroadcasts 	20
scalar MyScenario.node[41].nic.mac1609_4 	SentPackets 	15
scalar MyScenario.node[41].nic.mac1609_4 	SNIRLostPackets 	0
scalar MyScenario.node[41].nic.mac1609_4 	RXTXLostPackets 	0
scalar MyScenario.node[41].nic.mac1609_4 	TotalLostPackets 	0
scalar MyScenario.node[41].nic.mac1609_4 	DroppedPacketsInMac 	0
scalar MyScenario.node[41].nic.mac1609_4 	TooLittleTime 	0
scalar MyScenario.node[41].nic.mac1609_4 	TimesIntoBackoff 	15
scalar MyScenario.node[41].nic.mac1609_4 	SlotsBackoff 	19
scalar MyScenario.node[41].nic.mac1609_4 	NumInternalContention 	0
scalar MyScenario.node[41].nic.mac1609_4 	totalBusyTime 	0.003655
scalar MyScenario.node[41].veinsmobility 	startTime 	18006.9
scalar MyScenario.node[41].veinsmobility 	totalTime 	15.3
scalar MyScenario.node[41].veinsmobility 	stopTime 	18022.3
scalar MyScenario.node[41].veinsmobility 	minSpeed 	4.591852068179
scalar MyScenario.node[41].veinsmobility 	maxSpeed 	14.291302334484
scalar MyScenario.node[41].veinsmobility 	totalDistance 	201.14983856541
scalar MyScenario.node[41].veinsmobility 	totalCO2Emission 	33.705265902026
scalar MyScenario.node[3].appl 	generatedWSMs 	0
scalar MyScenario.node[3].appl 	receivedWSMs 	0
scalar MyScenario.node[3].appl 	generatedBSMs 	23
scalar MyScenario.node[3].appl 	receivedBSMs 	205
scalar MyScenario.node[3].appl 	generatedWSAs 	0
scalar MyScenario.node[3].appl 	receivedWSAs 	0
scalar MyScenario.node[3].nic.phy80211p 	busyTime 	0.00091502145922747
scalar MyScenario.node[3].nic.mac1609_4 	ReceivedUnicastPackets 	0
scalar MyScenario.node[3].nic.mac1609_4 	ReceivedBroadcasts 	205
scalar MyScenario.node[3].nic.mac1609_4 	SentPackets 	23
scalar MyScenario.node[3].nic.mac1609_4 	SNIRLostPackets 	0
scalar MyScenario.node[3].nic.mac1609_4 	RXTXLostPackets 	0
scalar MyScenario.node[3].nic.mac1609_4 	TotalLostPackets 	0
scalar MyScenario.node[3].nic.mac1609_4 	DroppedPacketsInMac 	0
scalar MyScenario.node[3].nic.mac1609_4 	TooLittleTime 	0
scalar MyScenario.node[3].nic.mac1609_4 	TimesIntoBackoff 	23
scalar MyScenario.node[3].nic.mac1609_4 	SlotsBackoff 	35
scalar MyScenario.node[3].nic.mac1609_4 	NumInternalContention 	0
scalar MyScenario.node[3].nic.mac1609_4 	totalBusyTime 	0.023735
scalar MyScenario.node[3].veinsmobility 	startTime 	18000
scalar MyScenario.node[3].veinsmobility 	totalTime 	23.2
scalar MyScenario.node[3].veinsmobility 	stopTime 	18023.3
scalar MyScenario.node[3].veinsmobility 	minSpeed 	29.880280896183
scalar MyScenario.node[3].veinsmobility 	maxSpeed 	29.999872122779
scalar MyScenario.node[3].veinsmobility 	totalDistance 	694.62163612126
scalar MyScenario.node[3].veinsmobility 	totalCO2Emission 	119.346704922
scalar MyScenario.node[26].appl 	generatedWSMs 	0
scalar MyScenario.node[26].appl 	receivedWSMs 	0
scalar MyScenario.node[26].appl 	generatedBSMs 	24
scalar MyScenario.node[26].appl 	receivedBSMs 	33
scalar MyScenario.node[26].appl 	generatedWSAs 	0
scalar MyScenario.node[26].appl 	receivedWSAs 	0
scalar MyScenario.node[26].nic.phy80211p 	busyTime 	0.00014729613733906
scalar MyScenario.node[26].nic.mac1609_4 	ReceivedUnicastPackets 	0
scalar MyScenario.node[26].nic.mac1609_4 	ReceivedBroadcasts 	33
scalar MyScenario.node[26].nic.mac1609_4 	SentPackets 	24
scalar MyScenario.node[26].nic.mac1609_4 	SNIRLostPackets 	0
scalar MyScenario.node[26].nic.mac1609_4 	RXTXLostPackets 	0
scalar MyScenario.node[26].nic.mac1609_4 	TotalLostPackets 	0
scalar MyScenario.node[26].nic.mac1609_4 	DroppedPacketsInMac 	0
scalar MyScenario.node[26].nic.mac1609_4 	TooLittleTime 	0
scalar MyScenario.node[26].nic.mac1609_4 	TimesIntoBackoff 	24
scalar MyScenario.node[26].nic.mac1609_4 	SlotsBackoff 	33
scalar MyScenario.node[26].nic.mac1609_4 	NumInternalContention 	0
scalar MyScenario.node[26].nic.mac1609_4 	totalBusyTime 	0.005952
scalar MyScenario.node[26].veinsmobility 	startTime 	18000
scalar MyScenario.node[26].veinsmobility 	totalTime 	23.2
scalar MyScenario.node[26].veinsmobility 	stopTime 	18023.3
scalar MyScenario.node[26].veinsmobility 	minSpeed 	0.25806486525794
scalar MyScenario.node[26].veinsmobility 	maxSpeed 	11.256847220865
scalar MyScenario.node[26].veinsmobility 	totalDistance 	228.48007390101
scalar MyScenario.node[26].veinsmobility 	totalCO2Emission 	58.634346703849
scalar MyScenario.node[12].appl 	generatedWSMs 	0
scalar MyScenario.node[12].appl 	receivedWSMs 	0
scalar MyScenario.node[12].appl 	generatedBSMs 	24
scalar MyScenario.node[12].appl 	receivedBSMs 	15
scalar MyScenario.node[12].appl 	generatedWSAs 	0
scalar MyScenario.node[12].appl 	receivedWSAs 	0
scalar MyScenario.node[12].nic.phy80211p 	busyTime 	6.4730290456432e-05
scalar MyScenario.node[12].nic.mac1609_4 	ReceivedUnicastPackets 	0
scalar MyScenario.node[12].nic.mac1609_4 	ReceivedBroadcasts 	15
scalar MyScenario.node[12].nic.mac1609_4 	SentPackets 	24
scalar MyScenario.node[12].nic.mac1609_4 	SNIRLostPackets 	0
scalar MyScenario.node[12].nic.mac1609_4 	RXTXLostPackets 	0
scalar MyScenario.node[12].nic.mac1609_4 	TotalLostPackets 	0
scalar MyScenario.node[12].nic.mac1609_4 	DroppedPacketsInMac 	0
scalar MyScenario.node[12].nic.mac1609_4 	TooLittleTime 	0
scalar MyScenario.node[12].nic.mac1609_4 	TimesIntoBackoff 	24
scalar MyScenario.node[12].nic.mac1609_4 	SlotsBackoff 	30
scalar MyScenario.node[12].nic.mac1609_4 	NumInternalContention 	0
scalar MyScenario.node[12].nic.mac1609_4 	totalBusyTime 	0.00408
scalar MyScenario.node[12].veinsmobility 	startTime 	18000
scalar MyScenario.node[12].veinsmobility 	totalTime 	24
scalar MyScenario.node[12].veinsmobility 	stopTime 	18024.1
scalar MyScenario.node[12].veinsmobility 	minSpeed 	0.2791054713964
scalar MyScenario.node[12].veinsmobility 	maxSpeed 	14.510235116374
scalar MyScenario.node[12].veinsmobility 	totalDistance 	300.6073876042
scalar MyScenario.node[12].veinsmobility 	totalCO2Emission 	79.037248978555
scalar MyScenario.node[22].appl 	generatedWSMs 	0
scalar MyScenario.node[22].appl 	receivedWSMs 	0
scalar MyScenario.node[22].appl 	generatedBSMs 	24
scalar MyScenario.node[22].appl 	receivedBSMs 	38
scalar MyScenario.node[22].appl 	generatedWSAs 	0
scalar MyScenario.node[22].appl 	receivedWSAs 	0
scalar MyScenario.node[22].nic.phy80211p 	busyTime 	0.00016398340248963
scalar MyScenario.node[22].nic.mac1609_4 	ReceivedUnicastPackets 	0
scalar MyScenario.node[22].nic.mac1609_4 	ReceivedBroadcasts 	38
scalar MyScenario.node[22].nic.mac1609_4 	SentPackets 	24
scalar MyScenario.node[22].nic.mac1609_4 	SNIRLostPackets 	0
scalar MyScenario.node[22].nic.mac1609_4 	RXTXLostPackets 	0
scalar MyScenario.node[22].nic.mac1609_4 	TotalLostPackets 	0
scalar MyScenario.node[22].nic.mac1609_4 	DroppedPacketsInMac 	0
scalar MyScenario.node[22].nic.mac1609_4 	TooLittleTime 	0
scalar MyScenario.node[22].nic.mac1609_4 	TimesIntoBackoff 	24
scalar MyScenario.node[22].nic.mac1609_4 	SlotsBackoff 	25
scalar MyScenario.node[22].nic.mac1609_4 	NumInternalContention 	0
scalar MyScenario.node[22].nic.mac1609_4 	totalBusyTime 	0.006472
scalar MyScenario.node[22].veinsmobility 	startTime 	18000
scalar MyScenario.node[22].veinsmobility 	totalTime 	24
scalar MyScenario.node[22].veinsmobility 	stopTime 	18024.1
scalar MyScenario.node[22].veinsmobility 	minSpeed 	0.25587375330483
scalar MyScenario.node[22].veinsmobility 	maxSpeed 	11.29916182702
scalar MyScenario.node[22].veinsmobility 	totalDistance 	242.30606432251
scalar MyScenario.node[22].veinsmobility 	totalCO2Emission 	61.173960858451
scalar MyScenario.node[2].appl 	generatedWSMs 	0
scalar MyScenario.node[2].appl 	receivedWSMs 	0
scalar MyScenario.node[2].appl 	generatedBSMs 	25
scalar MyScenario.node[2].appl 	receivedBSMs 	210
scalar MyScenario.node[2].appl 	generatedWSAs 	0
scalar MyScenario.node[2].appl 	receivedWSAs 	0
scalar MyScenario.node[2].nic.phy80211p 	busyTime 	0.00086324110671937
scalar MyScenario.node[2].nic.mac1609_4 	ReceivedUnicastPackets 	0
scalar MyScenario.node[2].nic.mac1609_4 	ReceivedBroadcasts 	210
scalar MyScenario.node[2].nic.mac1609_4 	SentPackets 	25
scalar MyScenario.node[2].nic.mac1609_4 	SNIRLostPackets 	0
scalar MyScenario.node[2].nic.mac1609_4 	RXTXLostPackets 	0
scalar MyScenario.node[2].nic.mac1609_4 	TotalLostPackets 	0
scalar MyScenario.node[2].nic.mac1609_4 	DroppedPacketsInMac 	0
scalar MyScenario.node[2].nic.mac1609_4 	TooLittleTime 	0
scalar MyScenario.node[2].nic.mac1609_4 	TimesIntoBackoff 	25
scalar MyScenario.node[2].nic.mac1609_4 	SlotsBackoff 	37
scalar MyScenario.node[2].nic.mac1609_4 	NumInternalContention 	0
scalar MyScenario.node[2].nic.mac1609_4 	totalBusyTime 	0.024465
scalar MyScenario.node[2].veinsmobility 	startTime 	18000
scalar MyScenario.node[2].veinsmobility 	totalTime 	25.2
scalar MyScenario.node[2].veinsmobility 	stopTime 	18025.3
scalar MyScenario.node[2].veinsmobility 	minSpeed 	29.88513412433
scalar MyScenario.node[2].veinsmobility 	maxSpeed 	29.999519203455
scalar MyScenario.node[2].veinsmobility 	totalDistance 	755.44886736141
scalar MyScenario.node[2].veinsmobility 	totalCO2Emission 	128.04787076446
scalar MyScenario.node[0].appl 	generatedWSMs 	0
scalar MyScenario.node[0].appl 	receivedWSMs 	0
scalar MyScenario.node[0].appl 	generatedBSMs 	25
scalar MyScenario.node[0].appl 	receivedBSMs 	251
scalar MyScenario.node[0].appl 	generatedWSAs 	0
scalar MyScenario.node[0].appl 	receivedWSAs 	0
scalar MyScenario.node[0].nic.phy80211p 	busyTime 	0.0010277165354331
scalar MyScenario.node[0].nic.mac1609_4 	ReceivedUnicastPackets 	0
scalar MyScenario.node[0].nic.mac1609_4 	ReceivedBroadcasts 	251
scalar MyScenario.node[0].nic.mac1609_4 	SentPackets 	25
scalar MyScenario.node[0].nic.mac1609_4 	SNIRLostPackets 	0
scalar MyScenario.node[0].nic.mac1609_4 	RXTXLostPackets 	0
scalar MyScenario.node[0].nic.mac1609_4 	TotalLostPackets 	0
scalar MyScenario.node[0].nic.mac1609_4 	DroppedPacketsInMac 	0
scalar MyScenario.node[0].nic.mac1609_4 	TooLittleTime 	0
scalar MyScenario.node[0].nic.mac1609_4 	TimesIntoBackoff 	25
scalar MyScenario.node[0].nic.mac1609_4 	SlotsBackoff 	36
scalar MyScenario.node[0].nic.mac1609_4 	NumInternalContention 	0
scalar MyScenario.node[0].nic.mac1609_4 	totalBusyTime 	0.028729
scalar MyScenario.node[0].veinsmobility 	startTime 	18000
scalar MyScenario.node[0].veinsmobility 	totalTime 	25.3
scalar MyScenario.node[0].veinsmobility 	stopTime 	18025.4
scalar MyScenario.node[0].veinsmobility 	minSpeed 	29.880497467183
scalar MyScenario.node[0].veinsmobility 	maxSpeed 	29.999937403165
scalar MyScenario.node[0].veinsmobility 	totalDistance 	756.62921211252
scalar MyScenario.node[0].veinsmobility 	totalCO2Emission 	129.59160423925
scalar MyScenario.node[31].appl 	generatedWSMs 	0
scalar MyScenario.node[31].appl 	receivedWSMs 	0
scalar MyScenario.node[31].appl 	generatedBSMs 	26
scalar MyScenario.node[31].appl 	receivedBSMs 	271
scalar MyScenario.node[31].appl 	generatedWSAs 	0
scalar MyScenario.node[31].appl 	receivedWSAs 	0
scalar MyScenario.node[31].nic.phy80211p 	busyTime 	0.0010924031007752
scalar MyScenario.node[31].nic.mac1609_4 	ReceivedUnicastPackets 	0
scalar MyScenario.node[31].nic.mac1609_4 	ReceivedBroadcasts 	271
scalar MyScenario.node[31].nic.mac1609_4 	SentPackets 	26
scalar MyScenario.node[31].nic.mac1609_4 	SNIRLostPackets 	0
scalar MyScenario.node[31].nic.mac1609_4 	RXTXLostPackets 	0
scalar MyScenario.node[31].nic.mac1609_4 	TotalLostPackets 	0
scalar MyScenario.node[31].nic.mac1609_4 	DroppedPacketsInMac 	0
scalar MyScenario.node[31].nic.mac1609_4 	TooLittleTime 	0
scalar MyScenario.node[31].nic.mac1609_4 	TimesIntoBackoff 	26
scalar MyScenario.node[31].nic.mac1609_4 	SlotsBackoff 	46
scalar MyScenario.node[31].nic.mac1609_4 	NumInternalContention 	0
scalar MyScenario.node[31].nic.mac1609_4 	totalBusyTime 	0.030914
scalar MyScenario.node[31].veinsmobility 	startTime 	18001
scalar MyScenario.node[31].veinsmobility 	totalTime 	25.7
scalar MyScenario.node[31].veinsmobility 	stopTime 	18026.8
scalar MyScenario.node[31].veinsmobility 	minSpeed 	30.677592862034
scalar MyScenario.node[31].veinsmobility 	maxSpeed 	42.616232403522
scalar MyScenario.node[31].veinsmobility 	totalDistance 	900.13587344036
scalar MyScenario.node[31].veinsmobility 	totalCO2Emission 	79.822756261894
scalar MyScenario.node[19].appl 	generatedWSMs 	0
scalar MyScenario.node[19].appl 	receivedWSMs 	0
scalar MyScenario.node[19].appl 	generatedBSMs 	28
scalar MyScenario.node[19].appl 	receivedBSMs 	224
scalar MyScenario.node[19].appl 	generatedWSAs 	0
scalar MyScenario.node[19].appl 	receivedWSAs 	0
scalar MyScenario.node[19].nic.phy80211p 	busyTime 	0.00084712727272727
scalar MyScenario.node[19].nic.mac1609_4 	ReceivedUnicastPackets 	0
scalar MyScenario.node[19].nic.mac1609_4 	ReceivedBroadcasts 	224
scalar MyScenario.node[19].nic.mac1609_4 	SentPackets 	28
scalar MyScenario.node[19].nic.mac1609_4 	SNIRLostPackets 	0
scalar MyScenario.node[19].nic.mac1609_4 	RXTXLostPackets 	0
scalar MyScenario.node[19].nic.mac1609_4 	TotalLostPackets 	0
scalar MyScenario.node[19].nic.mac1609_4 	DroppedPacketsInMac 	0
scalar MyScenario.node[19].nic.mac1609_4 	TooLittleTime 	0
scalar MyScenario.node[19].nic.mac1609_4 	TimesIntoBackoff 	28
scalar MyScenario.node[19].nic.mac1609_4 	SlotsBackoff 	53
scalar MyScenario.node[19].nic.mac1609_4 	NumInternalContention 	0
scalar MyScenario.node[19].nic.mac1609_4 	totalBusyTime 	0.026236
scalar MyScenario.node[19].veinsmobility 	startTime 	18000
scalar MyScenario.node[19].veinsmobility 	totalTime 	27.4
scalar MyScenario.node[19].veinsmobility 	stopTime 	18027.5
scalar MyScenario.node[19].veinsmobility 	minSpeed 	0.25972140086861
scalar MyScenario.node[19].veinsmobility 	maxSpeed 	15.001908840899
scalar MyScenario.node[19].veinsmobility 	totalDistance 	243.23551193594
scalar MyScenario.node[19].veinsmobility 	totalCO2Emission 	77.567506028113
scalar MyScenario.node[16].appl 	generatedWSMs 	0
scalar MyScenario.node[16].appl 	receivedWSMs 	0
scalar MyScenario.node[16].appl 	generatedBSMs 	30
scalar MyScenario.node[16].appl 	receivedBSMs 	55
scalar MyScenario.node[16].appl 	generatedWSAs 	0
scalar MyScenario.node[16].appl 	receivedWSAs 	0
scalar MyScenario.node[16].nic.phy80211p 	busyTime 	0.00019130434782609
scalar MyScenario.node[16].nic.mac1609_4 	ReceivedUnicastPackets 	0
scalar MyScenario.node[16].nic.mac1609_4 	ReceivedBroadcasts 	55
scalar MyScenario.node[16].nic.mac1609_4 	SentPackets 	30
scalar MyScenario.node[16].nic.mac1609_4 	SNIRLostPackets 	0
scalar MyScenario.node[16].nic.mac1609_4 	RXTXLostPackets 	0
scalar MyScenario.node[16].nic.mac1609_4 	TotalLostPackets 	0
scalar MyScenario.node[16].nic.mac1609_4 	DroppedPacketsInMac 	0
scalar MyScenario.node[16].nic.mac1609_4 	TooLittleTime 	0
scalar MyScenario.node[16].nic.mac1609_4 	TimesIntoBackoff 	30
scalar MyScenario.node[16].nic.mac1609_4 	SlotsBackoff 	50
scalar MyScenario.node[16].nic.mac1609_4 	NumInternalContention 	0
scalar MyScenario.node[16].nic.mac1609_4 	totalBusyTime 	0.00887
scalar MyScenario.node[16].veinsmobility 	startTime 	18000
scalar MyScenario.node[16].veinsmobility 	totalTime 	29.8
scalar MyScenario.node[16].veinsmobility 	stopTime 	18029.9
scalar MyScenario.node[16].veinsmobility 	minSpeed 	0.26872314328223
scalar MyScenario.node[16].veinsmobility 	maxSpeed 	12.324581434705
scalar MyScenario.node[16].veinsmobility 	totalDistance 	318.04327090449
scalar MyScenario.node[16].veinsmobility 	totalCO2Emission 	75.620930827064
scalar MyScenario.node[35].appl 	generatedWSMs 	0
scalar MyScenario.node[35].appl 	receivedWSMs 	0
scalar MyScenario.node[35].appl 	generatedBSMs 	27
scalar MyScenario.node[35].appl 	receivedBSMs 	297
scalar MyScenario.node[35].appl 	generatedWSAs 	0
scalar MyScenario.node[35].appl 	receivedWSAs 	0
scalar MyScenario.node[35].nic.phy80211p 	busyTime 	0.0011397785977859
scalar MyScenario.node[35].nic.mac1609_4 	ReceivedUnicastPackets 	0
scalar MyScenario.node[35].nic.mac1609_4 	ReceivedBroadcasts 	297
scalar MyScenario.node[35].nic.mac1609_4 	SentPackets 	27
scalar MyScenario.node[35].nic.mac1609_4 	SNIRLostPackets 	0
scalar MyScenario.node[35].nic.mac1609_4 	RXTXLostPackets 	0
scalar MyScenario.node[35].nic.mac1609_4 	TotalLostPackets 	0
scalar MyScenario.node[35].nic.mac1609_4 	DroppedPacketsInMac 	0
scalar MyScenario.node[35].nic.mac1609_4 	TooLittleTime 	0
scalar MyScenario.node[35].nic.mac1609_4 	TimesIntoBackoff 	27
scalar MyScenario.node[35].nic.mac1609_4 	SlotsBackoff 	41
scalar MyScenario.node[35].nic.mac1609_4 	NumInternalContention 	0
scalar MyScenario.node[35].nic.mac1609_4 	totalBusyTime 	0.033723
scalar MyScenario.node[35].veinsmobility 	startTime 	18004.6
scalar MyScenario.node[35].veinsmobility 	totalTime 	27
scalar MyScenario.node[35].veinsmobility 	stopTime 	18031.7
scalar MyScenario.node[35].veinsmobility 	minSpeed 	33.317517117212
scalar MyScenario.node[35].veinsmobility 	maxSpeed 	33.457176788572
scalar MyScenario.node[35].veinsmobility 	totalDistance 	901.47809545486
scalar MyScenario.node[35].veinsmobility 	totalCO2Emission 	169.79406586368
scalar MyScenario.node[44].appl 	generatedWSMs 	0
scalar MyScenario.node[44].appl 	receivedWSMs 	0
scalar MyScenario.node[44].appl 	generatedBSMs 	24
scalar MyScenario.node[44].appl 	receivedBSMs 	41
scalar MyScenario.node[44].appl 	generatedWSAs 	0
scalar MyScenario.node[44].appl 	receivedWSAs 	0
scalar MyScenario.node[44].nic.phy80211p 	busyTime 	0.00017619834710745
scalar MyScenario.node[44].nic.mac1609_4 	ReceivedUnicastPackets 	0
scalar MyScenario.node[44].nic.mac1609_4 	ReceivedBroadcasts 	41
scalar MyScenario.node[44].nic.mac1609_4 	SentPackets 	24
scalar MyScenario.node[44].nic.mac1609_4 	SNIRLostPackets 	0
scalar MyScenario.node[44].nic.mac1609_4 	RXTXLostPackets 	0
scalar MyScenario.node[44].nic.mac1609_4 	TotalLostPackets 	0
scalar MyScenario.node[44].nic.mac1609_4 	DroppedPacketsInMac 	0
scalar MyScenario.node[44].nic.mac1609_4 	TooLittleTime 	0
scalar MyScenario.node[44].nic.mac1609_4 	TimesIntoBackoff 	24
scalar MyScenario.node[44].nic.mac1609_4 	SlotsBackoff 	38
scalar MyScenario.node[44].nic.mac1609_4 	NumInternalContention 	0
scalar MyScenario.node[44].nic.mac1609_4 	totalBusyTime 	0.006784
scalar MyScenario.node[44].veinsmobility 	startTime 	18007.9
scalar MyScenario.node[44].veinsmobility 	totalTime 	24.1
scalar MyScenario.node[44].veinsmobility 	stopTime 	18032.1
scalar MyScenario.node[44].veinsmobility 	minSpeed 	3.3293574071909
scalar MyScenario.node[44].veinsmobility 	maxSpeed 	13.751298554009
scalar MyScenario.node[44].veinsmobility 	totalDistance 	284.22716807372
scalar MyScenario.node[44].veinsmobility 	totalCO2Emission 	62.374207455509
scalar MyScenario.node[33].appl 	generatedWSMs 	0
scalar MyScenario.node[33].appl 	receivedWSMs 	0
scalar MyScenario.node[33].appl 	generatedBSMs 	30
scalar MyScenario.node[33].appl 	receivedBSMs 	323
scalar MyScenario.node[33].appl 	generatedWSAs 	0
scalar MyScenario.node[33].appl 	receivedWSAs 	0
scalar MyScenario.node[33].nic.phy80211p 	busyTime 	0.0011120792079207
scalar MyScenario.node[33].nic.mac1609_4 	ReceivedUnicastPackets 	0
scalar MyScenario.node[33].nic.mac1609_4 	ReceivedBroadcasts 	323
scalar MyScenario.node[33].nic.mac1609_4 	SentPackets 	30
scalar MyScenario.node[33].nic.mac1609_4 	SNIRLostPackets 	1
scalar MyScenario.node[33].nic.mac1609_4 	RXTXLostPackets 	0
scalar MyScenario.node[33].nic.mac1609_4 	TotalLostPackets 	1
scalar MyScenario.node[33].nic.mac1609_4 	DroppedPacketsInMac 	0
scalar MyScenario.node[33].nic.mac1609_4 	TooLittleTime 	0
scalar MyScenario.node[33].nic.mac1609_4 	TimesIntoBackoff 	30
scalar MyScenario.node[33].nic.mac1609_4 	SlotsBackoff 	53
scalar MyScenario.node[33].nic.mac1609_4 	NumInternalContention 	0
scalar MyScenario.node[33].nic.mac1609_4 	totalBusyTime 	0.036846
scalar MyScenario.node[33].veinsmobility 	startTime 	18002.1
scalar MyScenario.node[33].veinsmobility 	totalTime 	30.2
scalar MyScenario.node[33].veinsmobility 	stopTime 	18032.4
scalar MyScenario.node[33].veinsmobility 	minSpeed 	29.885147976781
scalar MyScenario.node[33].veinsmobility 	maxSpeed 	29.999804286235
scalar MyScenario.node[33].veinsmobility 	totalDistance 	903.15484641413
scalar MyScenario.node[33].veinsmobility 	totalCO2Emission 	155.66908278423
scalar MyScenario.node[40].appl 	generatedWSMs 	0
scalar MyScenario.node[40].appl 	receivedWSMs 	0
scalar MyScenario.node[40].appl 	generatedBSMs 	26
scalar MyScenario.node[40].appl 	receivedBSMs 	293
scalar MyScenario.node[40].appl 	generatedWSAs 	0
scalar MyScenario.node[40].appl 	receivedWSAs 	0
scalar MyScenario.node[40].nic.phy80211p 	busyTime 	0.0011675095785441
scalar MyScenario.node[40].nic.mac1609_4 	ReceivedUnicastPackets 	0
scalar MyScenario.node[40].nic.mac1609_4 	ReceivedBroadcasts 	293
scalar MyScenario.node[40].nic.mac1609_4 	SentPackets 	26
scalar MyScenario.node[40].nic.mac1609_4 	SNIRLostPackets 	0
scalar MyScenario.node[40].nic.mac1609_4 	RXTXLostPackets 	0
scalar MyScenario.node[40].nic.mac1609_4 	TotalLostPackets 	0
scalar MyScenario.node[40].nic.mac1609_4 	DroppedPacketsInMac 	0
scalar MyScenario.node[40].nic.mac1609_4 	TooLittleTime 	0
scalar MyScenario.node[40].nic.mac1609_4 	TimesIntoBackoff 	26
scalar MyScenario.node[40].nic.mac1609_4 	SlotsBackoff 	43
scalar MyScenario.node[40].nic.mac1609_4 	NumInternalContention 	0
scalar MyScenario.node[40].nic.mac1609_4 	totalBusyTime 	0.033202
scalar MyScenario.node[40].veinsmobility 	startTime 	18006.8
scalar MyScenario.node[40].veinsmobility 	totalTime 	26
scalar MyScenario.node[40].veinsmobility 	stopTime 	18032.9
scalar MyScenario.node[40].veinsmobility 	minSpeed 	33.527067904004
scalar MyScenario.node[40].veinsmobility 	maxSpeed 	37.346832271078
scalar MyScenario.node[40].veinsmobility 	totalDistance 	902.13771180255
scalar MyScenario.node[40].veinsmobility 	totalCO2Emission 	142.00488679776
scalar MyScenario.node[45].appl 	generatedWSMs 	0
scalar MyScenario.node[45].appl 	receivedWSMs 	0
scalar MyScenario.node[45].appl 	generatedBSMs 	25
scalar MyScenario.node[45].appl 	receivedBSMs 	267
scalar MyScenario.node[45].appl 	generatedWSAs 	0
scalar MyScenario.node[45].appl 	receivedWSAs 	0
scalar MyScenario.node[45].nic.phy80211p 	busyTime 	0.001128780487805
scalar MyScenario.node[45].nic.mac1609_4 	ReceivedUnicastPackets 	0
scalar MyScenario.node[45].nic.mac1609_4 	ReceivedBroadcasts 	267
scalar MyScenario.node[45].nic.mac1609_4 	SentPackets 	25
scalar MyScenario.node[45].nic.mac1609_4 	SNIRLostPackets 	0
scalar MyScenario.node[45].nic.mac1609_4 	RXTXLostPackets 	0
scalar MyScenario.node[45].nic.mac1609_4 	TotalLostPackets 	0
scalar MyScenario.node[45].nic.mac1609_4 	DroppedPacketsInMac 	0
scalar MyScenario.node[45].nic.mac1609_4 	TooLittleTime 	0
scalar MyScenario.node[45].nic.mac1609_4 	TimesIntoBackoff 	25
scalar MyScenario.node[45].nic.mac1609_4 	SlotsBackoff 	36
scalar MyScenario.node[45].nic.mac1609_4 	NumInternalContention 	0
scalar MyScenario.node[45].nic.mac1609_4 	totalBusyTime 	0.030393
scalar MyScenario.node[45].veinsmobility 	startTime 	18008.4
scalar MyScenario.node[45].veinsmobility 	totalTime 	24.5
scalar MyScenario.node[45].veinsmobility 	stopTime 	18033
scalar MyScenario.node[45].veinsmobility 	minSpeed 	34.080926946574
scalar MyScenario.node[45].veinsmobility 	maxSpeed 	39.263923400551
scalar MyScenario.node[45].veinsmobility 	totalDistance 	899.21121871068
scalar MyScenario.node[45].veinsmobility 	totalCO2Emission 	150.45585135266
scalar MyScenario.node[34].appl 	generatedWSMs 	0
scalar MyScenario.node[34].appl 	receivedWSMs 	0
scalar MyScenario.node[34].appl 	generatedBSMs 	30
scalar MyScenario.node[34].appl 	receivedBSMs 	328
scalar MyScenario.node[34].appl 	generatedWSAs 	0
scalar MyScenario.node[34].appl 	receivedWSAs 	0
scalar MyScenario.node[34].nic.phy80211p 	busyTime 	0.0011295364238411
scalar MyScenario.node[34].nic.mac1609_4 	ReceivedUnicastPackets 	0
scalar MyScenario.node[34].nic.mac1609_4 	ReceivedBroadcasts 	328
scalar MyScenario.node[34].nic.mac1609_4 	SentPackets 	30
scalar MyScenario.node[34].nic.mac1609_4 	SNIRLostPackets 	0
scalar MyScenario.node[34].nic.mac1609_4 	RXTXLostPackets 	0
scalar MyScenario.node[34].nic.mac1609_4 	TotalLostPackets 	0
scalar MyScenario.node[34].nic.mac1609_4 	DroppedPacketsInMac 	0
scalar MyScenario.node[34].nic.mac1609_4 	TooLittleTime 	0
scalar MyScenario.node[34].nic.mac1609_4 	TimesIntoBackoff 	30
scalar MyScenario.node[34].nic.mac1609_4 	SlotsBackoff 	56
scalar MyScenario.node[34].nic.mac1609_4 	NumInternalContention 	0
scalar MyScenario.node[34].nic.mac1609_4 	totalBusyTime 	0.037262
scalar MyScenario.node[34].veinsmobility 	startTime 	18003.5
scalar MyScenario.node[34].veinsmobility 	totalTime 	30.1
scalar MyScenario.node[34].veinsmobility 	stopTime 	18033.7
scalar MyScenario.node[34].veinsmobility 	minSpeed 	29.857495277763
scalar MyScenario.node[34].veinsmobility 	maxSpeed 	30.313013301752
scalar MyScenario.node[34].veinsmobility 	totalDistance 	902.20840367432
scalar MyScenario.node[34].veinsmobility 	totalCO2Emission 	163.08495046666
scalar MyScenario.node[36].appl 	generatedWSMs 	0
scalar MyScenario.node[36].appl 	receivedWSMs 	0
scalar MyScenario.node[36].appl 	generatedBSMs 	30
scalar MyScenario.node[36].appl 	receivedBSMs 	324
scalar MyScenario.node[36].appl 	generatedWSAs 	0
scalar MyScenario.node[36].appl 	receivedWSAs 	0
scalar MyScenario.node[36].nic.phy80211p 	busyTime 	0.0011194684385382
scalar MyScenario.node[36].nic.mac1609_4 	ReceivedUnicastPackets 	0
scalar MyScenario.node[36].nic.mac1609_4 	ReceivedBroadcasts 	324
scalar MyScenario.node[36].nic.mac1609_4 	SentPackets 	30
scalar MyScenario.node[36].nic.mac1609_4 	SNIRLostPackets 	0
scalar MyScenario.node[36].nic.mac1609_4 	RXTXLostPackets 	0
scalar MyScenario.node[36].nic.mac1609_4 	TotalLostPackets 	0
scalar MyScenario.node[36].nic.mac1609_4 	DroppedPacketsInMac 	0
scalar MyScenario.node[36].nic.mac1609_4 	TooLittleTime 	0
scalar MyScenario.node[36].nic.mac1609_4 	TimesIntoBackoff 	30
scalar MyScenario.node[36].nic.mac1609_4 	SlotsBackoff 	49
scalar MyScenario.node[36].nic.mac1609_4 	NumInternalContention 	0
scalar MyScenario.node[36].nic.mac1609_4 	totalBusyTime 	0.036846
scalar MyScenario.node[36].veinsmobility 	startTime 	18004.8
scalar MyScenario.node[36].veinsmobility 	totalTime 	30
scalar MyScenario.node[36].veinsmobility 	stopTime 	18034.9
scalar MyScenario.node[36].veinsmobility 	minSpeed 	29.809540896129
scalar MyScenario.node[36].veinsmobility 	maxSpeed 	30.309134209894
scalar MyScenario.node[36].veinsmobility 	totalDistance 	899.6278661743
scalar MyScenario.node[36].veinsmobility 	totalCO2Emission 	171.33475345224
scalar MyScenario.node[39].appl 	generatedWSMs 	0
scalar MyScenario.node[39].appl 	receivedWSMs 	0
scalar MyScenario.node[39].appl 	generatedBSMs 	30
scalar MyScenario.node[39].appl 	receivedBSMs 	318
scalar MyScenario.node[39].appl 	generatedWSAs 	0
scalar MyScenario.node[39].appl 	receivedWSAs 	0
scalar MyScenario.node[39].nic.phy80211p 	busyTime 	0.0011024
scalar MyScenario.node[39].nic.mac1609_4 	ReceivedUnicastPackets 	0
scalar MyScenario.node[39].nic.mac1609_4 	ReceivedBroadcasts 	318
scalar MyScenario.node[39].nic.mac1609_4 	SentPackets 	30
scalar MyScenario.node[39].nic.mac1609_4 	SNIRLostPackets 	0
scalar MyScenario.node[39].nic.mac1609_4 	RXTXLostPackets 	0
scalar MyScenario.node[39].nic.mac1609_4 	TotalLostPackets 	0
scalar MyScenario.node[39].nic.mac1609_4 	DroppedPacketsInMac 	0
scalar MyScenario.node[39].nic.mac1609_4 	TooLittleTime 	0
scalar MyScenario.node[39].nic.mac1609_4 	TimesIntoBackoff 	30
scalar MyScenario.node[39].nic.mac1609_4 	SlotsBackoff 	47
scalar MyScenario.node[39].nic.mac1609_4 	NumInternalContention 	0
scalar MyScenario.node[39].nic.mac1609_4 	totalBusyTime 	0.036222
scalar MyScenario.node[39].veinsmobility 	startTime 	18006.2
scalar MyScenario.node[39].veinsmobility 	totalTime 	29.9
scalar MyScenario.node[39].veinsmobility 	stopTime 	18036.2
scalar MyScenario.node[39].veinsmobility 	minSpeed 	29.803143870611
scalar MyScenario.node[39].veinsmobility 	maxSpeed 	31.028892377004
scalar MyScenario.node[39].veinsmobility 	totalDistance 	902.48198294997
scalar MyScenario.node[39].veinsmobility 	totalCO2Emission 	174.42111069024
scalar MyScenario.node[46].appl 	generatedWSMs 	0
scalar MyScenario.node[46].appl 	receivedWSMs 	0
scalar MyScenario.node[46].appl 	generatedBSMs 	27
scalar MyScenario.node[46].appl 	receivedBSMs 	205
scalar MyScenario.node[46].appl 	generatedWSAs 	0
scalar MyScenario.node[46].appl 	receivedWSAs 	0
scalar MyScenario.node[46].nic.phy80211p 	busyTime 	0.0008015037593985
scalar MyScenario.node[46].nic.mac1609_4 	ReceivedUnicastPackets 	0
scalar MyScenario.node[46].nic.mac1609_4 	ReceivedBroadcasts 	205
scalar MyScenario.node[46].nic.mac1609_4 	SentPackets 	27
scalar MyScenario.node[46].nic.mac1609_4 	SNIRLostPackets 	0
scalar MyScenario.node[46].nic.mac1609_4 	RXTXLostPackets 	0
scalar MyScenario.node[46].nic.mac1609_4 	TotalLostPackets 	0
scalar MyScenario.node[46].nic.mac1609_4 	DroppedPacketsInMac 	0
scalar MyScenario.node[46].nic.mac1609_4 	TooLittleTime 	0
scalar MyScenario.node[46].nic.mac1609_4 	TimesIntoBackoff 	27
scalar MyScenario.node[46].nic.mac1609_4 	SlotsBackoff 	37
scalar MyScenario.node[46].nic.mac1609_4 	NumInternalContention 	0
scalar MyScenario.node[46].nic.mac1609_4 	totalBusyTime 	0.024155
scalar MyScenario.node[46].veinsmobility 	startTime 	18010.2
scalar MyScenario.node[46].veinsmobility 	totalTime 	26.5
scalar MyScenario.node[46].veinsmobility 	stopTime 	18036.8
scalar MyScenario.node[46].veinsmobility 	minSpeed 	33.98787622453
scalar MyScenario.node[46].veinsmobility 	maxSpeed 	34.116445985935
scalar MyScenario.node[46].veinsmobility 	totalDistance 	901.39773141081
scalar MyScenario.node[46].veinsmobility 	totalCO2Emission 	171.69317833412
scalar MyScenario.node[43].appl 	generatedWSMs 	0
scalar MyScenario.node[43].appl 	receivedWSMs 	0
scalar MyScenario.node[43].appl 	generatedBSMs 	30
scalar MyScenario.node[43].appl 	receivedBSMs 	289
scalar MyScenario.node[43].appl 	generatedWSAs 	0
scalar MyScenario.node[43].appl 	receivedWSAs 	0
scalar MyScenario.node[43].nic.phy80211p 	busyTime 	0.0010052173913043
scalar MyScenario.node[43].nic.mac1609_4 	ReceivedUnicastPackets 	0
scalar MyScenario.node[43].nic.mac1609_4 	ReceivedBroadcasts 	289
scalar MyScenario.node[43].nic.mac1609_4 	SentPackets 	30
scalar MyScenario.node[43].nic.mac1609_4 	SNIRLostPackets 	0
scalar MyScenario.node[43].nic.mac1609_4 	RXTXLostPackets 	0
scalar MyScenario.node[43].nic.mac1609_4 	TotalLostPackets 	0
scalar MyScenario.node[43].nic.mac1609_4 	DroppedPacketsInMac 	0
scalar MyScenario.node[43].nic.mac1609_4 	TooLittleTime 	0
scalar MyScenario.node[43].nic.mac1609_4 	TimesIntoBackoff 	30
scalar MyScenario.node[43].nic.mac1609_4 	SlotsBackoff 	36
scalar MyScenario.node[43].nic.mac1609_4 	NumInternalContention 	0
scalar MyScenario.node[43].nic.mac1609_4 	totalBusyTime 	0.033206
scalar MyScenario.node[43].veinsmobility 	startTime 	18007.5
scalar MyScenario.node[43].veinsmobility 	totalTime 	29.8
scalar MyScenario.node[43].veinsmobility 	stopTime 	18037.4
scalar MyScenario.node[43].veinsmobility 	minSpeed 	29.803896423484
scalar MyScenario.node[43].veinsmobility 	maxSpeed 	31.100570222155
scalar MyScenario.node[43].veinsmobility 	totalDistance 	900.60215946981
scalar MyScenario.node[43].veinsmobility 	totalCO2Emission 	178.02333321624
scalar MyScenario.node[53].appl 	generatedWSMs 	0
scalar MyScenario.node[53].appl 	receivedWSMs 	0
scalar MyScenario.node[53].appl 	generatedBSMs 	13
scalar MyScenario.node[53].appl 	receivedBSMs 	14
scalar MyScenario.node[53].appl 	generatedWSAs 	0
scalar MyScenario.node[53].appl 	receivedWSAs 	0
scalar MyScenario.node[53].nic.phy80211p 	busyTime 	0.00011464566929134
scalar MyScenario.node[53].nic.mac1609_4 	ReceivedUnicastPackets 	0
scalar MyScenario.node[53].nic.mac1609_4 	ReceivedBroadcasts 	14
scalar MyScenario.node[53].nic.mac1609_4 	SentPackets 	13
scalar MyScenario.node[53].nic.mac1609_4 	SNIRLostPackets 	0
scalar MyScenario.node[53].nic.mac1609_4 	RXTXLostPackets 	0
scalar MyScenario.node[53].nic.mac1609_4 	TotalLostPackets 	0
scalar MyScenario.node[53].nic.mac1609_4 	DroppedPacketsInMac 	0
scalar MyScenario.node[53].nic.mac1609_4 	TooLittleTime 	0
scalar MyScenario.node[53].nic.mac1609_4 	TimesIntoBackoff 	13
scalar MyScenario.node[53].nic.mac1609_4 	SlotsBackoff 	25
scalar MyScenario.node[53].nic.mac1609_4 	NumInternalContention 	0
scalar MyScenario.node[53].nic.mac1609_4 	totalBusyTime 	0.002821
scalar MyScenario.node[53].veinsmobility 	startTime 	18028.4
scalar MyScenario.node[53].veinsmobility 	totalTime 	12.6
scalar MyScenario.node[53].veinsmobility 	stopTime 	18041.1
scalar MyScenario.node[53].veinsmobility 	minSpeed 	7.6925362596525
scalar MyScenario.node[53].veinsmobility 	maxSpeed 	12.246479729643
scalar MyScenario.node[53].veinsmobility 	totalDistance 	148.84573698855
scalar MyScenario.node[53].veinsmobility 	totalCO2Emission 	35.342360549396
scalar MyScenario.node[48].appl 	generatedWSMs 	0
scalar MyScenario.node[48].appl 	receivedWSMs 	0
scalar MyScenario.node[48].appl 	generatedBSMs 	25
scalar MyScenario.node[48].appl 	receivedBSMs 	194
scalar MyScenario.node[48].appl 	generatedWSAs 	0
scalar MyScenario.node[48].appl 	receivedWSAs 	0
scalar MyScenario.node[48].nic.phy80211p 	busyTime 	0.00081774193548387
scalar MyScenario.node[48].nic.mac1609_4 	ReceivedUnicastPackets 	0
scalar MyScenario.node[48].nic.mac1609_4 	ReceivedBroadcasts 	194
scalar MyScenario.node[48].nic.mac1609_4 	SentPackets 	25
scalar MyScenario.node[48].nic.mac1609_4 	SNIRLostPackets 	1
scalar MyScenario.node[48].nic.mac1609_4 	RXTXLostPackets 	0
scalar MyScenario.node[48].nic.mac1609_4 	TotalLostPackets 	1
scalar MyScenario.node[48].nic.mac1609_4 	DroppedPacketsInMac 	0
scalar MyScenario.node[48].nic.mac1609_4 	TooLittleTime 	0
scalar MyScenario.node[48].nic.mac1609_4 	TimesIntoBackoff 	25
scalar MyScenario.node[48].nic.mac1609_4 	SlotsBackoff 	42
scalar MyScenario.node[48].nic.mac1609_4 	NumInternalContention 	0
scalar MyScenario.node[48].nic.mac1609_4 	totalBusyTime 	0.022905
scalar MyScenario.node[48].veinsmobility 	startTime 	18017.7
scalar MyScenario.node[48].veinsmobility 	totalTime 	24.7
scalar MyScenario.node[48].veinsmobility 	stopTime 	18042.5
scalar MyScenario.node[48].veinsmobility 	minSpeed 	36.313201295787
scalar MyScenario.node[48].veinsmobility 	maxSpeed 	36.46279334615
scalar MyScenario.node[48].veinsmobility 	totalDistance 	899.69886994772
scalar MyScenario.node[48].veinsmobility 	totalCO2Emission 	183.4820206364
scalar MyScenario.node[27].appl 	generatedWSMs 	0
scalar MyScenario.node[27].appl 	receivedWSMs 	0
scalar MyScenario.node[27].appl 	generatedBSMs 	47
scalar MyScenario.node[27].appl 	receivedBSMs 	292
scalar MyScenario.node[27].appl 	generatedWSAs 	0
scalar MyScenario.node[27].appl 	receivedWSAs 	0
scalar MyScenario.node[27].nic.phy80211p 	busyTime 	0.00064612765957447
scalar MyScenario.node[27].nic.mac1609_4 	ReceivedUnicastPackets 	0
scalar MyScenario.node[27].nic.mac1609_4 	ReceivedBroadcasts 	292
scalar MyScenario.node[27].nic.mac1609_4 	SentPackets 	47
scalar MyScenario.node[27].nic.mac1609_4 	SNIRLostPackets 	0
scalar MyScenario.node[27].nic.mac1609_4 	RXTXLostPackets 	0
scalar MyScenario.node[27].nic.mac1609_4 	TotalLostPackets 	0
scalar MyScenario.node[27].nic.mac1609_4 	DroppedPacketsInMac 	0
scalar MyScenario.node[27].nic.mac1609_4 	TooLittleTime 	0
scalar MyScenario.node[27].nic.mac1609_4 	TimesIntoBackoff 	47
scalar MyScenario.node[27].nic.mac1609_4 	SlotsBackoff 	71
scalar MyScenario.node[27].nic.mac1609_4 	NumInternalContention 	0
scalar MyScenario.node[27].nic.mac1609_4 	totalBusyTime 	0.035303
scalar MyScenario.node[27].veinsmobility 	startTime 	18000
scalar MyScenario.node[27].veinsmobility 	totalTime 	46.9
scalar MyScenario.node[27].veinsmobility 	stopTime 	18047
scalar MyScenario.node[27].veinsmobility 	minSpeed 	4.1731968971081
scalar MyScenario.node[27].veinsmobility 	maxSpeed 	11.775871070513
scalar MyScenario.node[27].veinsmobility 	totalDistance 	515.04999259064
scalar MyScenario.node[27].veinsmobility 	totalCO2Emission 	119.18547097749
scalar MyScenario.node[51].appl 	generatedWSMs 	0
scalar MyScenario.node[51].appl 	receivedWSMs 	0
scalar MyScenario.node[51].appl 	generatedBSMs 	30
scalar MyScenario.node[51].appl 	receivedBSMs 	211
scalar MyScenario.node[51].appl 	generatedWSAs 	0
scalar MyScenario.node[51].appl 	receivedWSAs 	0
scalar MyScenario.node[51].nic.phy80211p 	busyTime 	0.00074135135135135
scalar MyScenario.node[51].nic.mac1609_4 	ReceivedUnicastPackets 	0
scalar MyScenario.node[51].nic.mac1609_4 	ReceivedBroadcasts 	211
scalar MyScenario.node[51].nic.mac1609_4 	SentPackets 	30
scalar MyScenario.node[51].nic.mac1609_4 	SNIRLostPackets 	0
scalar MyScenario.node[51].nic.mac1609_4 	RXTXLostPackets 	0
scalar MyScenario.node[51].nic.mac1609_4 	TotalLostPackets 	0
scalar MyScenario.node[51].nic.mac1609_4 	DroppedPacketsInMac 	0
scalar MyScenario.node[51].nic.mac1609_4 	TooLittleTime 	0
scalar MyScenario.node[51].nic.mac1609_4 	TimesIntoBackoff 	30
scalar MyScenario.node[51].nic.mac1609_4 	SlotsBackoff 	50
scalar MyScenario.node[51].nic.mac1609_4 	NumInternalContention 	0
scalar MyScenario.node[51].nic.mac1609_4 	totalBusyTime 	0.025094
scalar MyScenario.node[51].veinsmobility 	startTime 	18026.9
scalar MyScenario.node[51].veinsmobility 	totalTime 	29.5
scalar MyScenario.node[51].veinsmobility 	stopTime 	18056.5
scalar MyScenario.node[51].veinsmobility 	minSpeed 	30.479639198766
scalar MyScenario.node[51].veinsmobility 	maxSpeed 	30.61875021113
scalar MyScenario.node[51].veinsmobility 	totalDistance 	900.09209578512
scalar MyScenario.node[51].veinsmobility 	totalCO2Emission 	161.02869813251
scalar MyScenario.node[52].appl 	generatedWSMs 	0
scalar MyScenario.node[52].appl 	receivedWSMs 	0
scalar MyScenario.node[52].appl 	generatedBSMs 	29
scalar MyScenario.node[52].appl 	receivedBSMs 	215
scalar MyScenario.node[52].appl 	generatedWSAs 	0
scalar MyScenario.node[52].appl 	receivedWSAs 	0
scalar MyScenario.node[52].nic.phy80211p 	busyTime 	0.00077909407665505
scalar MyScenario.node[52].nic.mac1609_4 	ReceivedUnicastPackets 	0
scalar MyScenario.node[52].nic.mac1609_4 	ReceivedBroadcasts 	215
scalar MyScenario.node[52].nic.mac1609_4 	SentPackets 	29
scalar MyScenario.node[52].nic.mac1609_4 	SNIRLostPackets 	0
scalar MyScenario.node[52].nic.mac1609_4 	RXTXLostPackets 	0
scalar MyScenario.node[52].nic.mac1609_4 	TotalLostPackets 	0
scalar MyScenario.node[52].nic.mac1609_4 	DroppedPacketsInMac 	0
scalar MyScenario.node[52].nic.mac1609_4 	TooLittleTime 	0
scalar MyScenario.node[52].nic.mac1609_4 	TimesIntoBackoff 	29
scalar MyScenario.node[52].nic.mac1609_4 	SlotsBackoff 	36
scalar MyScenario.node[52].nic.mac1609_4 	NumInternalContention 	0
scalar MyScenario.node[52].nic.mac1609_4 	totalBusyTime 	0.025405
scalar MyScenario.node[52].veinsmobility 	startTime 	18028
scalar MyScenario.node[52].veinsmobility 	totalTime 	28.6
scalar MyScenario.node[52].veinsmobility 	stopTime 	18056.7
scalar MyScenario.node[52].veinsmobility 	minSpeed 	31.541880253408
scalar MyScenario.node[52].veinsmobility 	maxSpeed 	31.676260099201
scalar MyScenario.node[52].veinsmobility 	totalDistance 	903.02879001294
scalar MyScenario.node[52].veinsmobility 	totalCO2Emission 	161.39248304215
scalar MyScenario.node[56].appl 	generatedWSMs 	0
scalar MyScenario.node[56].appl 	receivedWSMs 	0
scalar MyScenario.node[56].appl 	generatedBSMs 	25
scalar MyScenario.node[56].appl 	receivedBSMs 	188
scalar MyScenario.node[56].appl 	generatedWSAs 	0
scalar MyScenario.node[56].appl 	receivedWSAs 	0
scalar MyScenario.node[56].nic.phy80211p 	busyTime 	0.00079804081632653
scalar MyScenario.node[56].nic.mac1609_4 	ReceivedUnicastPackets 	0
scalar MyScenario.node[56].nic.mac1609_4 	ReceivedBroadcasts 	188
scalar MyScenario.node[56].nic.mac1609_4 	SentPackets 	25
scalar MyScenario.node[56].nic.mac1609_4 	SNIRLostPackets 	0
scalar MyScenario.node[56].nic.mac1609_4 	RXTXLostPackets 	0
scalar MyScenario.node[56].nic.mac1609_4 	TotalLostPackets 	0
scalar MyScenario.node[56].nic.mac1609_4 	DroppedPacketsInMac 	0
scalar MyScenario.node[56].nic.mac1609_4 	TooLittleTime 	0
scalar MyScenario.node[56].nic.mac1609_4 	TimesIntoBackoff 	25
scalar MyScenario.node[56].nic.mac1609_4 	SlotsBackoff 	36
scalar MyScenario.node[56].nic.mac1609_4 	NumInternalContention 	0
scalar MyScenario.node[56].nic.mac1609_4 	totalBusyTime 	0.022177
scalar MyScenario.node[56].veinsmobility 	startTime 	18033.7
scalar MyScenario.node[56].veinsmobility 	totalTime 	24.4
scalar MyScenario.node[56].veinsmobility 	stopTime 	18058.2
scalar MyScenario.node[56].veinsmobility 	minSpeed 	32.523363219338
scalar MyScenario.node[56].veinsmobility 	maxSpeed 	39.04343625813
scalar MyScenario.node[56].veinsmobility 	totalDistance 	900.28293404418
scalar MyScenario.node[56].veinsmobility 	totalCO2Emission 	133.39659488237
scalar MyScenario.node[57].appl 	generatedWSMs 	0
scalar MyScenario.node[57].appl 	receivedWSMs 	0
scalar MyScenario.node[57].appl 	generatedBSMs 	26
scalar MyScenario.node[57].appl 	receivedBSMs 	182
scalar MyScenario.node[57].appl 	generatedWSAs 	0
scalar MyScenario.node[57].appl 	receivedWSAs 	0
scalar MyScenario.node[57].nic.phy80211p 	busyTime 	0.0007434375
scalar MyScenario.node[57].nic.mac1609_4 	ReceivedUnicastPackets 	0
scalar MyScenario.node[57].nic.mac1609_4 	ReceivedBroadcasts 	182
scalar MyScenario.node[57].nic.mac1609_4 	SentPackets 	26
scalar MyScenario.node[57].nic.mac1609_4 	SNIRLostPackets 	1
scalar MyScenario.node[57].nic.mac1609_4 	RXTXLostPackets 	0
scalar MyScenario.node[57].nic.mac1609_4 	TotalLostPackets 	1
scalar MyScenario.node[57].nic.mac1609_4 	DroppedPacketsInMac 	0
scalar MyScenario.node[57].nic.mac1609_4 	TooLittleTime 	0
scalar MyScenario.node[57].nic.mac1609_4 	TimesIntoBackoff 	26
scalar MyScenario.node[57].nic.mac1609_4 	SlotsBackoff 	52
scalar MyScenario.node[57].nic.mac1609_4 	NumInternalContention 	0
scalar MyScenario.node[57].nic.mac1609_4 	totalBusyTime 	0.021762
scalar MyScenario.node[57].veinsmobility 	startTime 	18033.8
scalar MyScenario.node[57].veinsmobility 	totalTime 	25.5
scalar MyScenario.node[57].veinsmobility 	stopTime 	18059.4
scalar MyScenario.node[57].veinsmobility 	minSpeed 	35.346225437982
scalar MyScenario.node[57].veinsmobility 	maxSpeed 	35.475912783845
scalar MyScenario.node[57].veinsmobility 	totalDistance 	901.99013389393
scalar MyScenario.node[57].veinsmobility 	totalCO2Emission 	175.64112781928
scalar MyScenario.node[74].appl 	generatedWSMs 	0
scalar MyScenario.node[74].appl 	receivedWSMs 	0
scalar MyScenario.node[74].appl 	generatedBSMs 	2
scalar MyScenario.node[74].appl 	receivedBSMs 	13
scalar MyScenario.node[74].appl 	generatedWSAs 	0
scalar MyScenario.node[74].appl 	receivedWSAs 	0
scalar MyScenario.node[74].nic.phy80211p 	busyTime 	0.00075111111111111
scalar MyScenario.node[74].nic.mac1609_4 	ReceivedUnicastPackets 	0
scalar MyScenario.node[74].nic.mac1609_4 	ReceivedBroadcasts 	13
scalar MyScenario.node[74].nic.mac1609_4 	SentPackets 	2
scalar MyScenario.node[74].nic.mac1609_4 	SNIRLostPackets 	0
scalar MyScenario.node[74].nic.mac1609_4 	RXTXLostPackets 	0
scalar MyScenario.node[74].nic.mac1609_4 	TotalLostPackets 	0
scalar MyScenario.node[74].nic.mac1609_4 	DroppedPacketsInMac 	0
scalar MyScenario.node[74].nic.mac1609_4 	TooLittleTime 	0
scalar MyScenario.node[74].nic.mac1609_4 	TimesIntoBackoff 	2
scalar MyScenario.node[74].nic.mac1609_4 	SlotsBackoff 	2
scalar MyScenario.node[74].nic.mac1609_4 	NumInternalContention 	0
scalar MyScenario.node[74].nic.mac1609_4 	totalBusyTime 	0.001562
scalar MyScenario.node[74].veinsmobility 	startTime 	18059.1
scalar MyScenario.node[74].veinsmobility 	totalTime 	1.7
scalar MyScenario.node[74].veinsmobility 	stopTime 	18060.9
scalar MyScenario.node[74].veinsmobility 	minSpeed 	0.2479257847846
scalar MyScenario.node[74].veinsmobility 	maxSpeed 	3.3083804061263
scalar MyScenario.node[74].veinsmobility 	totalDistance 	3.2802298940958
scalar MyScenario.node[74].veinsmobility 	totalCO2Emission 	3.3205959111331
scalar MyScenario.node[61].appl 	generatedWSMs 	0
scalar MyScenario.node[61].appl 	receivedWSMs 	0
scalar MyScenario.node[61].appl 	generatedBSMs 	23
scalar MyScenario.node[61].appl 	receivedBSMs 	189
scalar MyScenario.node[61].appl 	generatedWSAs 	0
scalar MyScenario.node[61].appl 	receivedWSAs 	0
scalar MyScenario.node[61].nic.phy80211p 	busyTime 	0.00086210526315789
scalar MyScenario.node[61].nic.mac1609_4 	ReceivedUnicastPackets 	0
scalar MyScenario.node[61].nic.mac1609_4 	ReceivedBroadcasts 	189
scalar MyScenario.node[61].nic.mac1609_4 	SentPackets 	23
scalar MyScenario.node[61].nic.mac1609_4 	SNIRLostPackets 	0
scalar MyScenario.node[61].nic.mac1609_4 	RXTXLostPackets 	0
scalar MyScenario.node[61].nic.mac1609_4 	TotalLostPackets 	0
scalar MyScenario.node[61].nic.mac1609_4 	DroppedPacketsInMac 	0
scalar MyScenario.node[61].nic.mac1609_4 	TooLittleTime 	0
scalar MyScenario.node[61].nic.mac1609_4 	TimesIntoBackoff 	23
scalar MyScenario.node[61].nic.mac1609_4 	SlotsBackoff 	42
scalar MyScenario.node[61].nic.mac1609_4 	NumInternalContention 	0
scalar MyScenario.node[61].nic.mac1609_4 	totalBusyTime 	0.022071
scalar MyScenario.node[61].veinsmobility 	startTime 	18039.7
scalar MyScenario.node[61].veinsmobility 	totalTime 	22.7
scalar MyScenario.node[61].veinsmobility 	stopTime 	18062.5
scalar MyScenario.node[61].veinsmobility 	minSpeed 	39.541478861192
scalar MyScenario.node[61].veinsmobility 	maxSpeed 	39.691120167494
scalar MyScenario.node[61].veinsmobility 	totalDistance 	900.20025167576
scalar MyScenario.node[61].veinsmobility 	totalCO2Emission 	198.57877234255
scalar MyScenario.node[55].appl 	generatedWSMs 	0
scalar MyScenario.node[55].appl 	receivedWSMs 	0
scalar MyScenario.node[55].appl 	generatedBSMs 	31
scalar MyScenario.node[55].appl 	receivedBSMs 	230
scalar MyScenario.node[55].appl 	generatedWSAs 	0
scalar MyScenario.node[55].appl 	receivedWSAs 	0
scalar MyScenario.node[55].nic.phy80211p 	busyTime 	0.00078684210526316
scalar MyScenario.node[55].nic.mac1609_4 	ReceivedUnicastPackets 	0
scalar MyScenario.node[55].nic.mac1609_4 	ReceivedBroadcasts 	230
scalar MyScenario.node[55].nic.mac1609_4 	SentPackets 	31
scalar MyScenario.node[55].nic.mac1609_4 	SNIRLostPackets 	0
scalar MyScenario.node[55].nic.mac1609_4 	RXTXLostPackets 	0
scalar MyScenario.node[55].nic.mac1609_4 	TotalLostPackets 	0
scalar MyScenario.node[55].nic.mac1609_4 	DroppedPacketsInMac 	0
scalar MyScenario.node[55].nic.mac1609_4 	TooLittleTime 	0
scalar MyScenario.node[55].nic.mac1609_4 	TimesIntoBackoff 	31
scalar MyScenario.node[55].nic.mac1609_4 	SlotsBackoff 	44
scalar MyScenario.node[55].nic.mac1609_4 	NumInternalContention 	0
scalar MyScenario.node[55].nic.mac1609_4 	totalBusyTime 	0.027175
scalar MyScenario.node[55].veinsmobility 	startTime 	18033.5
scalar MyScenario.node[55].veinsmobility 	totalTime 	30.3
scalar MyScenario.node[55].veinsmobility 	stopTime 	18063.9
scalar MyScenario.node[55].veinsmobility 	minSpeed 	29.686458446777
scalar MyScenario.node[55].veinsmobility 	maxSpeed 	29.835419750649
scalar MyScenario.node[55].veinsmobility 	totalDistance 	900.64041435801
scalar MyScenario.node[55].veinsmobility 	totalCO2Emission 	157.93018028778
scalar MyScenario.node[11].appl 	generatedWSMs 	0
scalar MyScenario.node[11].appl 	receivedWSMs 	0
scalar MyScenario.node[11].appl 	generatedBSMs 	64
scalar MyScenario.node[11].appl 	receivedBSMs 	523
scalar MyScenario.node[11].appl 	generatedWSAs 	0
scalar MyScenario.node[11].appl 	receivedWSAs 	0
scalar MyScenario.node[11].nic.phy80211p 	busyTime 	0.000849875
scalar MyScenario.node[11].nic.mac1609_4 	ReceivedUnicastPackets 	0
scalar MyScenario.node[11].nic.mac1609_4 	ReceivedBroadcasts 	523
scalar MyScenario.node[11].nic.mac1609_4 	SentPackets 	64
scalar MyScenario.node[11].nic.mac1609_4 	SNIRLostPackets 	0
scalar MyScenario.node[11].nic.mac1609_4 	RXTXLostPackets 	0
scalar MyScenario.node[11].nic.mac1609_4 	TotalLostPackets 	0
scalar MyScenario.node[11].nic.mac1609_4 	DroppedPacketsInMac 	0
scalar MyScenario.node[11].nic.mac1609_4 	TooLittleTime 	0
scalar MyScenario.node[11].nic.mac1609_4 	TimesIntoBackoff 	64
scalar MyScenario.node[11].nic.mac1609_4 	SlotsBackoff 	96
scalar MyScenario.node[11].nic.mac1609_4 	NumInternalContention 	0
scalar MyScenario.node[11].nic.mac1609_4 	totalBusyTime 	0.061112
scalar MyScenario.node[11].veinsmobility 	startTime 	18000
scalar MyScenario.node[11].veinsmobility 	totalTime 	63.9
scalar MyScenario.node[11].veinsmobility 	stopTime 	18064
scalar MyScenario.node[11].veinsmobility 	minSpeed 	4.5374309282949e-14
scalar MyScenario.node[11].veinsmobility 	maxSpeed 	14.411965053019
scalar MyScenario.node[11].veinsmobility 	totalDistance 	318.51124591542
scalar MyScenario.node[11].veinsmobility 	totalCO2Emission 	142.15431512841
scalar MyScenario.node[65].appl 	generatedWSMs 	0
scalar MyScenario.node[65].appl 	receivedWSMs 	0
scalar MyScenario.node[65].appl 	generatedBSMs 	22
scalar MyScenario.node[65].appl 	receivedBSMs 	164
scalar MyScenario.node[65].appl 	generatedWSAs 	0
scalar MyScenario.node[65].appl 	receivedWSAs 	0
scalar MyScenario.node[65].nic.phy80211p 	busyTime 	0.00080834123222749
scalar MyScenario.node[65].nic.mac1609_4 	ReceivedUnicastPackets 	0
scalar MyScenario.node[65].nic.mac1609_4 	ReceivedBroadcasts 	164
scalar MyScenario.node[65].nic.mac1609_4 	SentPackets 	22
scalar MyScenario.node[65].nic.mac1609_4 	SNIRLostPackets 	0
scalar MyScenario.node[65].nic.mac1609_4 	RXTXLostPackets 	0
scalar MyScenario.node[65].nic.mac1609_4 	TotalLostPackets 	0
scalar MyScenario.node[65].nic.mac1609_4 	DroppedPacketsInMac 	0
scalar MyScenario.node[65].nic.mac1609_4 	TooLittleTime 	0
scalar MyScenario.node[65].nic.mac1609_4 	TimesIntoBackoff 	22
scalar MyScenario.node[65].nic.mac1609_4 	SlotsBackoff 	27
scalar MyScenario.node[65].nic.mac1609_4 	NumInternalContention 	0
scalar MyScenario.node[65].nic.mac1609_4 	totalBusyTime 	0.019366
scalar MyScenario.node[65].veinsmobility 	startTime 	18043.2
scalar MyScenario.node[65].veinsmobility 	totalTime 	21
scalar MyScenario.node[65].veinsmobility 	stopTime 	18064.3
scalar MyScenario.node[65].veinsmobility 	minSpeed 	32.765358204028
scalar MyScenario.node[65].veinsmobility 	maxSpeed 	44.342911644192
scalar MyScenario.node[65].veinsmobility 	totalDistance 	898.58223809989
scalar MyScenario.node[65].veinsmobility 	totalCO2Emission 	327.21120468717
scalar MyScenario.node[60].appl 	generatedWSMs 	0
scalar MyScenario.node[60].appl 	receivedWSMs 	0
scalar MyScenario.node[60].appl 	generatedBSMs 	26
scalar MyScenario.node[60].appl 	receivedBSMs 	198
scalar MyScenario.node[60].appl 	generatedWSAs 	0
scalar MyScenario.node[60].appl 	receivedWSAs 	0
scalar MyScenario.node[60].nic.phy80211p 	busyTime 	0.00079505791505791
scalar MyScenario.node[60].nic.mac1609_4 	ReceivedUnicastPackets 	0
scalar MyScenario.node[60].nic.mac1609_4 	ReceivedBroadcasts 	198
scalar MyScenario.node[60].nic.mac1609_4 	SentPackets 	26
scalar MyScenario.node[60].nic.mac1609_4 	SNIRLostPackets 	0
scalar MyScenario.node[60].nic.mac1609_4 	RXTXLostPackets 	0
scalar MyScenario.node[60].nic.mac1609_4 	TotalLostPackets 	0
scalar MyScenario.node[60].nic.mac1609_4 	DroppedPacketsInMac 	0
scalar MyScenario.node[60].nic.mac1609_4 	TooLittleTime 	0
scalar MyScenario.node[60].nic.mac1609_4 	TimesIntoBackoff 	26
scalar MyScenario.node[60].nic.mac1609_4 	SlotsBackoff 	42
scalar MyScenario.node[60].nic.mac1609_4 	NumInternalContention 	0
scalar MyScenario.node[60].nic.mac1609_4 	totalBusyTime 	0.023322
scalar MyScenario.node[60].veinsmobility 	startTime 	18038.9
scalar MyScenario.node[60].veinsmobility 	totalTime 	25.8
scalar MyScenario.node[60].veinsmobility 	stopTime 	18064.8
scalar MyScenario.node[60].veinsmobility 	minSpeed 	34.754825890093
scalar MyScenario.node[60].veinsmobility 	maxSpeed 	34.8897201896
scalar MyScenario.node[60].veinsmobility 	totalDistance 	898.47202026422
scalar MyScenario.node[60].veinsmobility 	totalCO2Emission 	173.15559077443
scalar MyScenario.node[58].appl 	generatedWSMs 	0
scalar MyScenario.node[58].appl 	receivedWSMs 	0
scalar MyScenario.node[58].appl 	generatedBSMs 	30
scalar MyScenario.node[58].appl 	receivedBSMs 	252
scalar MyScenario.node[58].appl 	generatedWSAs 	0
scalar MyScenario.node[58].appl 	receivedWSAs 	0
scalar MyScenario.node[58].nic.phy80211p 	busyTime 	0.00086210526315789
scalar MyScenario.node[58].nic.mac1609_4 	ReceivedUnicastPackets 	0
scalar MyScenario.node[58].nic.mac1609_4 	ReceivedBroadcasts 	252
scalar MyScenario.node[58].nic.mac1609_4 	SentPackets 	30
scalar MyScenario.node[58].nic.mac1609_4 	SNIRLostPackets 	0
scalar MyScenario.node[58].nic.mac1609_4 	RXTXLostPackets 	0
scalar MyScenario.node[58].nic.mac1609_4 	TotalLostPackets 	0
scalar MyScenario.node[58].nic.mac1609_4 	DroppedPacketsInMac 	0
scalar MyScenario.node[58].nic.mac1609_4 	TooLittleTime 	0
scalar MyScenario.node[58].nic.mac1609_4 	TimesIntoBackoff 	30
scalar MyScenario.node[58].nic.mac1609_4 	SlotsBackoff 	45
scalar MyScenario.node[58].nic.mac1609_4 	NumInternalContention 	0
scalar MyScenario.node[58].nic.mac1609_4 	totalBusyTime 	0.029358
scalar MyScenario.node[58].veinsmobility 	startTime 	18034.7
scalar MyScenario.node[58].veinsmobility 	totalTime 	30.3
scalar MyScenario.node[58].veinsmobility 	stopTime 	18065.1
scalar MyScenario.node[58].veinsmobility 	minSpeed 	29.642576023237
scalar MyScenario.node[58].veinsmobility 	maxSpeed 	29.884449738517
scalar MyScenario.node[58].veinsmobility 	totalDistance 	900.65448496931
scalar MyScenario.node[58].veinsmobility 	totalCO2Emission 	172.43599438597
scalar MyScenario.node[62].appl 	generatedWSMs 	0
scalar MyScenario.node[62].appl 	receivedWSMs 	0
scalar MyScenario.node[62].appl 	generatedBSMs 	27
scalar MyScenario.node[62].appl 	receivedBSMs 	206
scalar MyScenario.node[62].appl 	generatedWSAs 	0
scalar MyScenario.node[62].appl 	receivedWSAs 	0
scalar MyScenario.node[62].nic.phy80211p 	busyTime 	0.00081151515151515
scalar MyScenario.node[62].nic.mac1609_4 	ReceivedUnicastPackets 	0
scalar MyScenario.node[62].nic.mac1609_4 	ReceivedBroadcasts 	206
scalar MyScenario.node[62].nic.mac1609_4 	SentPackets 	27
scalar MyScenario.node[62].nic.mac1609_4 	SNIRLostPackets 	0
scalar MyScenario.node[62].nic.mac1609_4 	RXTXLostPackets 	0
scalar MyScenario.node[62].nic.mac1609_4 	TotalLostPackets 	0
scalar MyScenario.node[62].nic.mac1609_4 	DroppedPacketsInMac 	0
scalar MyScenario.node[62].nic.mac1609_4 	TooLittleTime 	0
scalar MyScenario.node[62].nic.mac1609_4 	TimesIntoBackoff 	27
scalar MyScenario.node[62].nic.mac1609_4 	SlotsBackoff 	42
scalar MyScenario.node[62].nic.mac1609_4 	NumInternalContention 	0
scalar MyScenario.node[62].nic.mac1609_4 	totalBusyTime 	0.024259
scalar MyScenario.node[62].veinsmobility 	startTime 	18039.8
scalar MyScenario.node[62].veinsmobility 	totalTime 	26.3
scalar MyScenario.node[62].veinsmobility 	stopTime 	18066.2
scalar MyScenario.node[62].veinsmobility 	minSpeed 	34.299735322992
scalar MyScenario.node[62].veinsmobility 	maxSpeed 	34.432606199683
scalar MyScenario.node[62].veinsmobility 	totalDistance 	902.77764487547
scalar MyScenario.node[62].veinsmobility 	totalCO2Emission 	170.67430256331
scalar MyScenario.node[59].appl 	generatedWSMs 	0
scalar MyScenario.node[59].appl 	receivedWSMs 	0
scalar MyScenario.node[59].appl 	generatedBSMs 	30
scalar MyScenario.node[59].appl 	receivedBSMs 	227
scalar MyScenario.node[59].appl 	generatedWSAs 	0
scalar MyScenario.node[59].appl 	receivedWSAs 	0
scalar MyScenario.node[59].nic.phy80211p 	busyTime 	0.00078431893687708
scalar MyScenario.node[59].nic.mac1609_4 	ReceivedUnicastPackets 	0
scalar MyScenario.node[59].nic.mac1609_4 	ReceivedBroadcasts 	227
scalar MyScenario.node[59].nic.mac1609_4 	SentPackets 	30
scalar MyScenario.node[59].nic.mac1609_4 	SNIRLostPackets 	0
scalar MyScenario.node[59].nic.mac1609_4 	RXTXLostPackets 	0
scalar MyScenario.node[59].nic.mac1609_4 	TotalLostPackets 	0
scalar MyScenario.node[59].nic.mac1609_4 	DroppedPacketsInMac 	0
scalar MyScenario.node[59].nic.mac1609_4 	TooLittleTime 	0
scalar MyScenario.node[59].nic.mac1609_4 	TimesIntoBackoff 	30
scalar MyScenario.node[59].nic.mac1609_4 	SlotsBackoff 	42
scalar MyScenario.node[59].nic.mac1609_4 	NumInternalContention 	0
scalar MyScenario.node[59].nic.mac1609_4 	totalBusyTime 	0.026758
scalar MyScenario.node[59].veinsmobility 	startTime 	18036.3
scalar MyScenario.node[59].veinsmobility 	totalTime 	30
scalar MyScenario.node[59].veinsmobility 	stopTime 	18066.4
scalar MyScenario.node[59].veinsmobility 	minSpeed 	29.655035906384
scalar MyScenario.node[59].veinsmobility 	maxSpeed 	31.222662365772
scalar MyScenario.node[59].veinsmobility 	totalDistance 	902.01691601195
scalar MyScenario.node[59].veinsmobility 	totalCO2Emission 	169.48163407983
scalar MyScenario.node[5].appl 	generatedWSMs 	0
scalar MyScenario.node[5].appl 	receivedWSMs 	0
scalar MyScenario.node[5].appl 	generatedBSMs 	67
scalar MyScenario.node[5].appl 	receivedBSMs 	572
scalar MyScenario.node[5].appl 	generatedWSAs 	0
scalar MyScenario.node[5].appl 	receivedWSAs 	0
scalar MyScenario.node[5].nic.phy80211p 	busyTime 	0.00088261127596439
scalar MyScenario.node[5].nic.mac1609_4 	ReceivedUnicastPackets 	0
scalar MyScenario.node[5].nic.mac1609_4 	ReceivedBroadcasts 	572
scalar MyScenario.node[5].nic.mac1609_4 	SentPackets 	67
scalar MyScenario.node[5].nic.mac1609_4 	SNIRLostPackets 	0
scalar MyScenario.node[5].nic.mac1609_4 	RXTXLostPackets 	0
scalar MyScenario.node[5].nic.mac1609_4 	TotalLostPackets 	0
scalar MyScenario.node[5].nic.mac1609_4 	DroppedPacketsInMac 	0
scalar MyScenario.node[5].nic.mac1609_4 	TooLittleTime 	0
scalar MyScenario.node[5].nic.mac1609_4 	TimesIntoBackoff 	67
scalar MyScenario.node[5].nic.mac1609_4 	SlotsBackoff 	106
scalar MyScenario.node[5].nic.mac1609_4 	NumInternalContention 	0
scalar MyScenario.node[5].nic.mac1609_4 	totalBusyTime 	0.066523
scalar MyScenario.node[5].veinsmobility 	startTime 	18000
scalar MyScenario.node[5].veinsmobility 	totalTime 	67.3
scalar MyScenario.node[5].veinsmobility 	stopTime 	18067.4
scalar MyScenario.node[5].veinsmobility 	minSpeed 	4.5361876805556e-14
scalar MyScenario.node[5].veinsmobility 	maxSpeed 	12.515735944411
scalar MyScenario.node[5].veinsmobility 	totalDistance 	325.12739203457
scalar MyScenario.node[5].veinsmobility 	totalCO2Emission 	132.7351238599
scalar MyScenario.node[67].appl 	generatedWSMs 	0
scalar MyScenario.node[67].appl 	receivedWSMs 	0
scalar MyScenario.node[67].appl 	generatedBSMs 	24
scalar MyScenario.node[67].appl 	receivedBSMs 	157
scalar MyScenario.node[67].appl 	generatedWSAs 	0
scalar MyScenario.node[67].appl 	receivedWSAs 	0
scalar MyScenario.node[67].nic.phy80211p 	busyTime 	0.00069186440677966
scalar MyScenario.node[67].nic.mac1609_4 	ReceivedUnicastPackets 	0
scalar MyScenario.node[67].nic.mac1609_4 	ReceivedBroadcasts 	157
scalar MyScenario.node[67].nic.mac1609_4 	SentPackets 	24
scalar MyScenario.node[67].nic.mac1609_4 	SNIRLostPackets 	0
scalar MyScenario.node[67].nic.mac1609_4 	RXTXLostPackets 	0
scalar MyScenario.node[67].nic.mac1609_4 	TotalLostPackets 	0
scalar MyScenario.node[67].nic.mac1609_4 	DroppedPacketsInMac 	0
scalar MyScenario.node[67].nic.mac1609_4 	TooLittleTime 	0
scalar MyScenario.node[67].nic.mac1609_4 	TimesIntoBackoff 	24
scalar MyScenario.node[67].nic.mac1609_4 	SlotsBackoff 	30
scalar MyScenario.node[67].nic.mac1609_4 	NumInternalContention 	0
scalar MyScenario.node[67].nic.mac1609_4 	totalBusyTime 	0.018848
scalar MyScenario.node[67].veinsmobility 	startTime 	18049.5
scalar MyScenario.node[67].veinsmobility 	totalTime 	23.5
scalar MyScenario.node[67].veinsmobility 	stopTime 	18073.1
scalar MyScenario.node[67].veinsmobility 	minSpeed 	38.313747027056
scalar MyScenario.node[67].veinsmobility 	maxSpeed 	38.446430160663
scalar MyScenario.node[67].veinsmobility 	totalDistance 	900.99589484662
scalar MyScenario.node[67].veinsmobility 	totalCO2Emission 	191.2038765987
scalar MyScenario.node[70].appl 	generatedWSMs 	0
scalar MyScenario.node[70].appl 	receivedWSMs 	0
scalar MyScenario.node[70].appl 	generatedBSMs 	26
scalar MyScenario.node[70].appl 	receivedBSMs 	115
scalar MyScenario.node[70].appl 	generatedWSAs 	0
scalar MyScenario.node[70].appl 	receivedWSAs 	0
scalar MyScenario.node[70].nic.phy80211p 	busyTime 	0.00046
scalar MyScenario.node[70].nic.mac1609_4 	ReceivedUnicastPackets 	0
scalar MyScenario.node[70].nic.mac1609_4 	ReceivedBroadcasts 	115
scalar MyScenario.node[70].nic.mac1609_4 	SentPackets 	26
scalar MyScenario.node[70].nic.mac1609_4 	SNIRLostPackets 	0
scalar MyScenario.node[70].nic.mac1609_4 	RXTXLostPackets 	0
scalar MyScenario.node[70].nic.mac1609_4 	TotalLostPackets 	0
scalar MyScenario.node[70].nic.mac1609_4 	DroppedPacketsInMac 	0
scalar MyScenario.node[70].nic.mac1609_4 	TooLittleTime 	0
scalar MyScenario.node[70].nic.mac1609_4 	TimesIntoBackoff 	26
scalar MyScenario.node[70].nic.mac1609_4 	SlotsBackoff 	41
scalar MyScenario.node[70].nic.mac1609_4 	NumInternalContention 	0
scalar MyScenario.node[70].nic.mac1609_4 	totalBusyTime 	0.01469
scalar MyScenario.node[70].veinsmobility 	startTime 	18054
scalar MyScenario.node[70].veinsmobility 	totalTime 	25.9
scalar MyScenario.node[70].veinsmobility 	stopTime 	18080
scalar MyScenario.node[70].veinsmobility 	minSpeed 	28.665856858939
scalar MyScenario.node[70].veinsmobility 	maxSpeed 	35.248353435084
scalar MyScenario.node[70].veinsmobility 	totalDistance 	901.06962645883
scalar MyScenario.node[70].veinsmobility 	totalCO2Emission 	223.14620262254
scalar MyScenario.node[32].appl 	generatedWSMs 	0
scalar MyScenario.node[32].appl 	receivedWSMs 	0
scalar MyScenario.node[32].appl 	generatedBSMs 	81
scalar MyScenario.node[32].appl 	receivedBSMs 	5
scalar MyScenario.node[32].appl 	generatedWSAs 	0
scalar MyScenario.node[32].appl 	receivedWSAs 	0
scalar MyScenario.node[32].nic.phy80211p 	busyTime 	6.4197530864196e-06
scalar MyScenario.node[32].nic.mac1609_4 	ReceivedUnicastPackets 	0
scalar MyScenario.node[32].nic.mac1609_4 	ReceivedBroadcasts 	5
scalar MyScenario.node[32].nic.mac1609_4 	SentPackets 	81
scalar MyScenario.node[32].nic.mac1609_4 	SNIRLostPackets 	0
scalar MyScenario.node[32].nic.mac1609_4 	RXTXLostPackets 	0
scalar MyScenario.node[32].nic.mac1609_4 	TotalLostPackets 	0
scalar MyScenario.node[32].nic.mac1609_4 	DroppedPacketsInMac 	0
scalar MyScenario.node[32].nic.mac1609_4 	TooLittleTime 	0
scalar MyScenario.node[32].nic.mac1609_4 	TimesIntoBackoff 	81
scalar MyScenario.node[32].nic.mac1609_4 	SlotsBackoff 	110
scalar MyScenario.node[32].nic.mac1609_4 	NumInternalContention 	0
scalar MyScenario.node[32].nic.mac1609_4 	totalBusyTime 	0.009025
scalar MyScenario.node[32].veinsmobility 	startTime 	18001.1
scalar MyScenario.node[32].veinsmobility 	totalTime 	80.9
scalar MyScenario.node[32].veinsmobility 	stopTime 	18082.1
scalar MyScenario.node[32].veinsmobility 	minSpeed 	0
scalar MyScenario.node[32].veinsmobility 	maxSpeed 	15.63025430413
scalar MyScenario.node[32].veinsmobility 	totalDistance 	688.05679539866
scalar MyScenario.node[32].veinsmobility 	totalCO2Emission 	222.14621308238
scalar MyScenario.node[73].appl 	generatedWSMs 	0
scalar MyScenario.node[73].appl 	receivedWSMs 	0
scalar MyScenario.node[73].appl 	generatedBSMs 	26
scalar MyScenario.node[73].appl 	receivedBSMs 	104
scalar MyScenario.node[73].appl 	generatedWSAs 	0
scalar MyScenario.node[73].appl 	receivedWSAs 	0
scalar MyScenario.node[73].nic.phy80211p 	busyTime 	0.000416
scalar MyScenario.node[73].nic.mac1609_4 	ReceivedUnicastPackets 	0
scalar MyScenario.node[73].nic.mac1609_4 	ReceivedBroadcasts 	104
scalar MyScenario.node[73].nic.mac1609_4 	SentPackets 	26
scalar MyScenario.node[73].nic.mac1609_4 	SNIRLostPackets 	0
scalar MyScenario.node[73].nic.mac1609_4 	RXTXLostPackets 	0
scalar MyScenario.node[73].nic.mac1609_4 	TotalLostPackets 	0
scalar MyScenario.node[73].nic.mac1609_4 	DroppedPacketsInMac 	0
scalar MyScenario.node[73].nic.mac1609_4 	TooLittleTime 	0
scalar MyScenario.node[73].nic.mac1609_4 	TimesIntoBackoff 	26
scalar MyScenario.node[73].nic.mac1609_4 	SlotsBackoff 	31
scalar MyScenario.node[73].nic.mac1609_4 	NumInternalContention 	0
scalar MyScenario.node[73].nic.mac1609_4 	totalBusyTime 	0.013546
scalar MyScenario.node[73].veinsmobility 	startTime 	18057.9
scalar MyScenario.node[73].veinsmobility 	totalTime 	25.9
scalar MyScenario.node[73].veinsmobility 	stopTime 	18083.9
scalar MyScenario.node[73].veinsmobility 	minSpeed 	34.641132642125
scalar MyScenario.node[73].veinsmobility 	maxSpeed 	34.780714498349
scalar MyScenario.node[73].veinsmobility 	totalDistance 	898.02003792541
scalar MyScenario.node[73].veinsmobility 	totalCO2Emission 	174.86678936153
scalar MyScenario.node[72].appl 	generatedWSMs 	0
scalar MyScenario.node[72].appl 	receivedWSMs 	0
scalar MyScenario.node[72].appl 	generatedBSMs 	28
scalar MyScenario.node[72].appl 	receivedBSMs 	195
scalar MyScenario.node[72].appl 	generatedWSAs 	0
scalar MyScenario.node[72].appl 	receivedWSAs 	0
scalar MyScenario.node[72].nic.phy80211p 	busyTime 	0.00071408450704225
scalar MyScenario.node[72].nic.mac1609_4 	ReceivedUnicastPackets 	0
scalar MyScenario.node[72].nic.mac1609_4 	ReceivedBroadcasts 	195
scalar MyScenario.node[72].nic.mac1609_4 	SentPackets 	28
scalar MyScenario.node[72].nic.mac1609_4 	SNIRLostPackets 	0
scalar MyScenario.node[72].nic.mac1609_4 	RXTXLostPackets 	0
scalar MyScenario.node[72].nic.mac1609_4 	TotalLostPackets 	0
scalar MyScenario.node[72].nic.mac1609_4 	DroppedPacketsInMac 	0
scalar MyScenario.node[72].nic.mac1609_4 	TooLittleTime 	0
scalar MyScenario.node[72].nic.mac1609_4 	TimesIntoBackoff 	28
scalar MyScenario.node[72].nic.mac1609_4 	SlotsBackoff 	38
scalar MyScenario.node[72].nic.mac1609_4 	NumInternalContention 	0
scalar MyScenario.node[72].nic.mac1609_4 	totalBusyTime 	0.02322
scalar MyScenario.node[72].veinsmobility 	startTime 	18057.1
scalar MyScenario.node[72].veinsmobility 	totalTime 	28.3
scalar MyScenario.node[72].veinsmobility 	stopTime 	18085.5
scalar MyScenario.node[72].veinsmobility 	minSpeed 	0.26711332953535
scalar MyScenario.node[72].veinsmobility 	maxSpeed 	15.472127364859
scalar MyScenario.node[72].veinsmobility 	totalDistance 	384.38152781991
scalar MyScenario.node[72].veinsmobility 	totalCO2Emission 	93.806004363643
scalar MyScenario.node[63].appl 	generatedWSMs 	0
scalar MyScenario.node[63].appl 	receivedWSMs 	0
scalar MyScenario.node[63].appl 	generatedBSMs 	51
scalar MyScenario.node[63].appl 	receivedBSMs 	19
scalar MyScenario.node[63].appl 	generatedWSAs 	0
scalar MyScenario.node[63].appl 	receivedWSAs 	0
scalar MyScenario.node[63].nic.phy80211p 	busyTime 	3.8443579766537e-05
scalar MyScenario.node[63].nic.mac1609_4 	ReceivedUnicastPackets 	0
scalar MyScenario.node[63].nic.mac1609_4 	ReceivedBroadcasts 	19
scalar MyScenario.node[63].nic.mac1609_4 	SentPackets 	51
scalar MyScenario.node[63].nic.mac1609_4 	SNIRLostPackets 	0
scalar MyScenario.node[63].nic.mac1609_4 	RXTXLostPackets 	0
scalar MyScenario.node[63].nic.mac1609_4 	TotalLostPackets 	0
scalar MyScenario.node[63].nic.mac1609_4 	DroppedPacketsInMac 	0
scalar MyScenario.node[63].nic.mac1609_4 	TooLittleTime 	0
scalar MyScenario.node[63].nic.mac1609_4 	TimesIntoBackoff 	51
scalar MyScenario.node[63].nic.mac1609_4 	SlotsBackoff 	83
scalar MyScenario.node[63].nic.mac1609_4 	NumInternalContention 	0
scalar MyScenario.node[63].nic.mac1609_4 	totalBusyTime 	0.007331
scalar MyScenario.node[63].veinsmobility 	startTime 	18039.9
scalar MyScenario.node[63].veinsmobility 	totalTime 	51.3
scalar MyScenario.node[63].veinsmobility 	stopTime 	18091.3
scalar MyScenario.node[63].veinsmobility 	minSpeed 	4.5360869002685e-14
scalar MyScenario.node[63].veinsmobility 	maxSpeed 	12.4271207184
scalar MyScenario.node[63].veinsmobility 	totalDistance 	148.68260939506
scalar MyScenario.node[63].veinsmobility 	totalCO2Emission 	83.331964036805
scalar MyScenario.node[8].appl 	generatedWSMs 	0
scalar MyScenario.node[8].appl 	receivedWSMs 	0
scalar MyScenario.node[8].appl 	generatedBSMs 	93
scalar MyScenario.node[8].appl 	receivedBSMs 	506
scalar MyScenario.node[8].appl 	generatedWSAs 	0
scalar MyScenario.node[8].appl 	receivedWSAs 	0
scalar MyScenario.node[8].nic.phy80211p 	busyTime 	0.00056706896551724
scalar MyScenario.node[8].nic.mac1609_4 	ReceivedUnicastPackets 	0
scalar MyScenario.node[8].nic.mac1609_4 	ReceivedBroadcasts 	506
scalar MyScenario.node[8].nic.mac1609_4 	SentPackets 	93
scalar MyScenario.node[8].nic.mac1609_4 	SNIRLostPackets 	0
scalar MyScenario.node[8].nic.mac1609_4 	RXTXLostPackets 	0
scalar MyScenario.node[8].nic.mac1609_4 	TotalLostPackets 	0
scalar MyScenario.node[8].nic.mac1609_4 	DroppedPacketsInMac 	0
scalar MyScenario.node[8].nic.mac1609_4 	TooLittleTime 	0
scalar MyScenario.node[8].nic.mac1609_4 	TimesIntoBackoff 	93
scalar MyScenario.node[8].nic.mac1609_4 	SlotsBackoff 	133
scalar MyScenario.node[8].nic.mac1609_4 	NumInternalContention 	0
scalar MyScenario.node[8].nic.mac1609_4 	totalBusyTime 	0.062389
scalar MyScenario.node[8].veinsmobility 	startTime 	18000
scalar MyScenario.node[8].veinsmobility 	totalTime 	92.7
scalar MyScenario.node[8].veinsmobility 	stopTime 	18092.8
scalar MyScenario.node[8].veinsmobility 	minSpeed 	0
scalar MyScenario.node[8].veinsmobility 	maxSpeed 	14.315870452359
scalar MyScenario.node[8].veinsmobility 	totalDistance 	556.87457911879
scalar MyScenario.node[8].veinsmobility 	totalCO2Emission 	219.64479807035
scalar MyScenario.node[78].appl 	generatedWSMs 	0
[...]
scalar MyScenario.node[91].nic.mac1609_4 	SentPackets 	7
scalar MyScenario.node[91].nic.mac1609_4 	SNIRLostPackets 	0
scalar MyScenario.node[91].nic.mac1609_4 	RXTXLostPackets 	0
scalar MyScenario.node[91].nic.mac1609_4 	TotalLostPackets 	0
scalar MyScenario.node[91].nic.mac1609_4 	DroppedPacketsInMac 	0
scalar MyScenario.node[91].nic.mac1609_4 	TooLittleTime 	0
scalar MyScenario.node[91].nic.mac1609_4 	TimesIntoBackoff 	7
scalar MyScenario.node[91].nic.mac1609_4 	SlotsBackoff 	11
scalar MyScenario.node[91].nic.mac1609_4 	NumInternalContention 	0
scalar MyScenario.node[91].nic.mac1609_4 	totalBusyTime 	0.003127
scalar MyScenario.node[91].veinsmobility 	startTime 	18093
scalar MyScenario.node[91].veinsmobility 	totalTime 	7
scalar MyScenario.node[91].veinsmobility 	stopTime 	18100
scalar MyScenario.node[91].veinsmobility 	minSpeed 	16.900273094661
scalar MyScenario.node[91].veinsmobility 	maxSpeed 	17.038060431465
scalar MyScenario.node[91].veinsmobility 	totalDistance 	119.32194028858
scalar MyScenario.node[91].veinsmobility 	totalCO2Emission 	18.433083455133
scalar MyScenario.node[18].appl 	generatedWSMs 	0
scalar MyScenario.node[18].appl 	receivedWSMs 	0
scalar MyScenario.node[18].appl 	generatedBSMs 	100
scalar MyScenario.node[18].appl 	receivedBSMs 	295
scalar MyScenario.node[18].appl 	generatedWSAs 	0
scalar MyScenario.node[18].appl 	receivedWSAs 	0
scalar MyScenario.node[18].nic.phy80211p 	busyTime 	0.0003068
scalar MyScenario.node[18].nic.mac1609_4 	ReceivedUnicastPackets 	0
scalar MyScenario.node[18].nic.mac1609_4 	ReceivedBroadcasts 	295
scalar MyScenario.node[18].nic.mac1609_4 	SentPackets 	100
scalar MyScenario.node[18].nic.mac1609_4 	SNIRLostPackets 	0
scalar MyScenario.node[18].nic.mac1609_4 	RXTXLostPackets 	0
scalar MyScenario.node[18].nic.mac1609_4 	TotalLostPackets 	0
scalar MyScenario.node[18].nic.mac1609_4 	DroppedPacketsInMac 	0
scalar MyScenario.node[18].nic.mac1609_4 	TooLittleTime 	0
scalar MyScenario.node[18].nic.mac1609_4 	TimesIntoBackoff 	100
scalar MyScenario.node[18].nic.mac1609_4 	SlotsBackoff 	151
scalar MyScenario.node[18].nic.mac1609_4 	NumInternalContention 	0
scalar MyScenario.node[18].nic.mac1609_4 	totalBusyTime 	0.04118
scalar MyScenario.node[18].veinsmobility 	startTime 	18000
scalar MyScenario.node[18].veinsmobility 	totalTime 	100
scalar MyScenario.node[18].veinsmobility 	stopTime 	18100
scalar MyScenario.node[18].veinsmobility 	minSpeed 	4.5378606657735e-14
scalar MyScenario.node[18].veinsmobility 	maxSpeed 	18.433013180583
scalar MyScenario.node[18].veinsmobility 	totalDistance 	954.42779299607
scalar MyScenario.node[18].veinsmobility 	totalCO2Emission 	258.85207816944
scalar MyScenario.node[21].appl 	generatedWSMs 	0
scalar MyScenario.node[21].appl 	receivedWSMs 	0
scalar MyScenario.node[21].appl 	generatedBSMs 	100
scalar MyScenario.node[21].appl 	receivedBSMs 	308
scalar MyScenario.node[21].appl 	generatedWSAs 	0
scalar MyScenario.node[21].appl 	receivedWSAs 	0
scalar MyScenario.node[21].nic.phy80211p 	busyTime 	0.00032032
scalar MyScenario.node[21].nic.mac1609_4 	ReceivedUnicastPackets 	0
scalar MyScenario.node[21].nic.mac1609_4 	ReceivedBroadcasts 	308
scalar MyScenario.node[21].nic.mac1609_4 	SentPackets 	100
scalar MyScenario.node[21].nic.mac1609_4 	SNIRLostPackets 	0
scalar MyScenario.node[21].nic.mac1609_4 	RXTXLostPackets 	0
scalar MyScenario.node[21].nic.mac1609_4 	TotalLostPackets 	0
scalar MyScenario.node[21].nic.mac1609_4 	DroppedPacketsInMac 	0
scalar MyScenario.node[21].nic.mac1609_4 	TooLittleTime 	0
scalar MyScenario.node[21].nic.mac1609_4 	TimesIntoBackoff 	100
scalar MyScenario.node[21].nic.mac1609_4 	SlotsBackoff 	160
scalar MyScenario.node[21].nic.mac1609_4 	NumInternalContention 	0
scalar MyScenario.node[21].nic.mac1609_4 	totalBusyTime 	0.042532
scalar MyScenario.node[21].veinsmobility 	startTime 	18000
scalar MyScenario.node[21].veinsmobility 	totalTime 	100
scalar MyScenario.node[21].veinsmobility 	stopTime 	18100
scalar MyScenario.node[21].veinsmobility 	minSpeed 	0
scalar MyScenario.node[21].veinsmobility 	maxSpeed 	12.372265102007
scalar MyScenario.node[21].veinsmobility 	totalDistance 	1057.7566092022
scalar MyScenario.node[21].veinsmobility 	totalCO2Emission 	218.90337952595
scalar MyScenario.node[66].appl 	generatedWSMs 	0
scalar MyScenario.node[66].appl 	receivedWSMs 	0
scalar MyScenario.node[66].appl 	generatedBSMs 	54
scalar MyScenario.node[66].appl 	receivedBSMs 	276
scalar MyScenario.node[66].appl 	generatedWSAs 	0
scalar MyScenario.node[66].appl 	receivedWSAs 	0
scalar MyScenario.node[66].nic.phy80211p 	busyTime 	0.000530573012939
scalar MyScenario.node[66].nic.mac1609_4 	ReceivedUnicastPackets 	0
scalar MyScenario.node[66].nic.mac1609_4 	ReceivedBroadcasts 	276
scalar MyScenario.node[66].nic.mac1609_4 	SentPackets 	54
scalar MyScenario.node[66].nic.mac1609_4 	SNIRLostPackets 	0
scalar MyScenario.node[66].nic.mac1609_4 	RXTXLostPackets 	0
scalar MyScenario.node[66].nic.mac1609_4 	TotalLostPackets 	0
scalar MyScenario.node[66].nic.mac1609_4 	DroppedPacketsInMac 	0
scalar MyScenario.node[66].nic.mac1609_4 	TooLittleTime 	0
scalar MyScenario.node[66].nic.mac1609_4 	TimesIntoBackoff 	54
scalar MyScenario.node[66].nic.mac1609_4 	SlotsBackoff 	89
scalar MyScenario.node[66].nic.mac1609_4 	NumInternalContention 	0
scalar MyScenario.node[66].nic.mac1609_4 	totalBusyTime 	0.034374
scalar MyScenario.node[66].veinsmobility 	startTime 	18045.9
scalar MyScenario.node[66].veinsmobility 	totalTime 	54.1
scalar MyScenario.node[66].veinsmobility 	stopTime 	18100
scalar MyScenario.node[66].veinsmobility 	minSpeed 	0.47590680164101
scalar MyScenario.node[66].veinsmobility 	maxSpeed 	13.4749596278
scalar MyScenario.node[66].veinsmobility 	totalDistance 	600.85963416779
scalar MyScenario.node[66].veinsmobility 	totalCO2Emission 	149.26293002005
scalar MyScenario.node[23].appl 	generatedWSMs 	0
scalar MyScenario.node[23].appl 	receivedWSMs 	0
scalar MyScenario.node[23].appl 	generatedBSMs 	100
scalar MyScenario.node[23].appl 	receivedBSMs 	299
scalar MyScenario.node[23].appl 	generatedWSAs 	0
scalar MyScenario.node[23].appl 	receivedWSAs 	0
scalar MyScenario.node[23].nic.phy80211p 	busyTime 	0.00031096
scalar MyScenario.node[23].nic.mac1609_4 	ReceivedUnicastPackets 	0
scalar MyScenario.node[23].nic.mac1609_4 	ReceivedBroadcasts 	299
scalar MyScenario.node[23].nic.mac1609_4 	SentPackets 	100
scalar MyScenario.node[23].nic.mac1609_4 	SNIRLostPackets 	0
scalar MyScenario.node[23].nic.mac1609_4 	RXTXLostPackets 	0
scalar MyScenario.node[23].nic.mac1609_4 	TotalLostPackets 	0
scalar MyScenario.node[23].nic.mac1609_4 	DroppedPacketsInMac 	0
scalar MyScenario.node[23].nic.mac1609_4 	TooLittleTime 	0
scalar MyScenario.node[23].nic.mac1609_4 	TimesIntoBackoff 	100
scalar MyScenario.node[23].nic.mac1609_4 	SlotsBackoff 	152
scalar MyScenario.node[23].nic.mac1609_4 	NumInternalContention 	0
scalar MyScenario.node[23].nic.mac1609_4 	totalBusyTime 	0.041596
scalar MyScenario.node[23].veinsmobility 	startTime 	18000
scalar MyScenario.node[23].veinsmobility 	totalTime 	100
scalar MyScenario.node[23].veinsmobility 	stopTime 	18100
scalar MyScenario.node[23].veinsmobility 	minSpeed 	0
scalar MyScenario.node[23].veinsmobility 	maxSpeed 	10.792197436
scalar MyScenario.node[23].veinsmobility 	totalDistance 	710.9068910192
scalar MyScenario.node[23].veinsmobility 	totalCO2Emission 	188.84023262838
scalar MyScenario.node[54].appl 	generatedWSMs 	0
scalar MyScenario.node[54].appl 	receivedWSMs 	0
scalar MyScenario.node[54].appl 	generatedBSMs 	68
scalar MyScenario.node[54].appl 	receivedBSMs 	207
scalar MyScenario.node[54].appl 	generatedWSAs 	0
scalar MyScenario.node[54].appl 	receivedWSAs 	0
scalar MyScenario.node[54].nic.phy80211p 	busyTime 	0.00031519765739385
scalar MyScenario.node[54].nic.mac1609_4 	ReceivedUnicastPackets 	0
scalar MyScenario.node[54].nic.mac1609_4 	ReceivedBroadcasts 	207
scalar MyScenario.node[54].nic.mac1609_4 	SentPackets 	68
scalar MyScenario.node[54].nic.mac1609_4 	SNIRLostPackets 	0
scalar MyScenario.node[54].nic.mac1609_4 	RXTXLostPackets 	0
scalar MyScenario.node[54].nic.mac1609_4 	TotalLostPackets 	0
scalar MyScenario.node[54].nic.mac1609_4 	DroppedPacketsInMac 	0
scalar MyScenario.node[54].nic.mac1609_4 	TooLittleTime 	0
scalar MyScenario.node[54].nic.mac1609_4 	TimesIntoBackoff 	68
scalar MyScenario.node[54].nic.mac1609_4 	SlotsBackoff 	110
scalar MyScenario.node[54].nic.mac1609_4 	NumInternalContention 	0
scalar MyScenario.node[54].nic.mac1609_4 	totalBusyTime 	0.028668
scalar MyScenario.node[54].veinsmobility 	startTime 	18031.7
scalar MyScenario.node[54].veinsmobility 	totalTime 	68.3
scalar MyScenario.node[54].veinsmobility 	stopTime 	18100
scalar MyScenario.node[54].veinsmobility 	minSpeed 	4.537469325473e-14
scalar MyScenario.node[54].veinsmobility 	maxSpeed 	12.768258195836
scalar MyScenario.node[54].veinsmobility 	totalDistance 	284.00207373312
scalar MyScenario.node[54].veinsmobility 	totalCO2Emission 	116.18647121443
scalar MyScenario.node[69].appl 	generatedWSMs 	0
scalar MyScenario.node[69].appl 	receivedWSMs 	0
scalar MyScenario.node[69].appl 	generatedBSMs 	47
scalar MyScenario.node[69].appl 	receivedBSMs 	70
scalar MyScenario.node[69].appl 	generatedWSAs 	0
scalar MyScenario.node[69].appl 	receivedWSAs 	0
scalar MyScenario.node[69].nic.phy80211p 	busyTime 	0.00015555555555556
scalar MyScenario.node[69].nic.mac1609_4 	ReceivedUnicastPackets 	0
scalar MyScenario.node[69].nic.mac1609_4 	ReceivedBroadcasts 	70
scalar MyScenario.node[69].nic.mac1609_4 	SentPackets 	47
scalar MyScenario.node[69].nic.mac1609_4 	SNIRLostPackets 	0
scalar MyScenario.node[69].nic.mac1609_4 	RXTXLostPackets 	0
scalar MyScenario.node[69].nic.mac1609_4 	TotalLostPackets 	0
scalar MyScenario.node[69].nic.mac1609_4 	DroppedPacketsInMac 	0
scalar MyScenario.node[69].nic.mac1609_4 	TooLittleTime 	0
scalar MyScenario.node[69].nic.mac1609_4 	TimesIntoBackoff 	47
scalar MyScenario.node[69].nic.mac1609_4 	SlotsBackoff 	68
scalar MyScenario.node[69].nic.mac1609_4 	NumInternalContention 	0
scalar MyScenario.node[69].nic.mac1609_4 	totalBusyTime 	0.012215
scalar MyScenario.node[69].veinsmobility 	startTime 	18053.2
scalar MyScenario.node[69].veinsmobility 	totalTime 	46.8
scalar MyScenario.node[69].veinsmobility 	stopTime 	18100
scalar MyScenario.node[69].veinsmobility 	minSpeed 	0
scalar MyScenario.node[69].veinsmobility 	maxSpeed 	13.954808108067
scalar MyScenario.node[69].veinsmobility 	totalDistance 	526.93884347394
scalar MyScenario.node[69].veinsmobility 	totalCO2Emission 	120.47401750099
scalar MyScenario.node[93].appl 	generatedWSMs 	0
scalar MyScenario.node[93].appl 	receivedWSMs 	0
scalar MyScenario.node[93].appl 	generatedBSMs 	4
scalar MyScenario.node[93].appl 	receivedBSMs 	12
scalar MyScenario.node[93].appl 	generatedWSAs 	0
scalar MyScenario.node[93].appl 	receivedWSAs 	0
scalar MyScenario.node[93].nic.phy80211p 	busyTime 	0.00032
scalar MyScenario.node[93].nic.mac1609_4 	ReceivedUnicastPackets 	0
scalar MyScenario.node[93].nic.mac1609_4 	ReceivedBroadcasts 	12
scalar MyScenario.node[93].nic.mac1609_4 	SentPackets 	4
scalar MyScenario.node[93].nic.mac1609_4 	SNIRLostPackets 	0
scalar MyScenario.node[93].nic.mac1609_4 	RXTXLostPackets 	0
scalar MyScenario.node[93].nic.mac1609_4 	TotalLostPackets 	0
scalar MyScenario.node[93].nic.mac1609_4 	DroppedPacketsInMac 	0
scalar MyScenario.node[93].nic.mac1609_4 	TooLittleTime 	0
scalar MyScenario.node[93].nic.mac1609_4 	TimesIntoBackoff 	4
scalar MyScenario.node[93].nic.mac1609_4 	SlotsBackoff 	8
scalar MyScenario.node[93].nic.mac1609_4 	NumInternalContention 	0
scalar MyScenario.node[93].nic.mac1609_4 	totalBusyTime 	0.001668
scalar MyScenario.node[93].veinsmobility 	startTime 	18096.1
scalar MyScenario.node[93].veinsmobility 	totalTime 	3.9
scalar MyScenario.node[93].veinsmobility 	stopTime 	18100
scalar MyScenario.node[93].veinsmobility 	minSpeed 	16.409025606922
scalar MyScenario.node[93].veinsmobility 	maxSpeed 	16.530429556825
scalar MyScenario.node[93].veinsmobility 	totalDistance 	64.50810580279
scalar MyScenario.node[93].veinsmobility 	totalCO2Emission 	9.2941481538781
scalar MyScenario.node[37].appl 	generatedWSMs 	0
scalar MyScenario.node[37].appl 	receivedWSMs 	0
scalar MyScenario.node[37].appl 	generatedBSMs 	95
scalar MyScenario.node[37].appl 	receivedBSMs 	128
scalar MyScenario.node[37].appl 	generatedWSAs 	0
scalar MyScenario.node[37].appl 	receivedWSAs 	0
scalar MyScenario.node[37].nic.phy80211p 	busyTime 	0.00014027397260274
scalar MyScenario.node[37].nic.mac1609_4 	ReceivedUnicastPackets 	0
scalar MyScenario.node[37].nic.mac1609_4 	ReceivedBroadcasts 	128
scalar MyScenario.node[37].nic.mac1609_4 	SentPackets 	95
scalar MyScenario.node[37].nic.mac1609_4 	SNIRLostPackets 	0
scalar MyScenario.node[37].nic.mac1609_4 	RXTXLostPackets 	0
scalar MyScenario.node[37].nic.mac1609_4 	TotalLostPackets 	0
scalar MyScenario.node[37].nic.mac1609_4 	DroppedPacketsInMac 	0
scalar MyScenario.node[37].nic.mac1609_4 	TooLittleTime 	0
scalar MyScenario.node[37].nic.mac1609_4 	TimesIntoBackoff 	95
scalar MyScenario.node[37].nic.mac1609_4 	SlotsBackoff 	119
scalar MyScenario.node[37].nic.mac1609_4 	NumInternalContention 	0
scalar MyScenario.node[37].nic.mac1609_4 	totalBusyTime 	0.023287
scalar MyScenario.node[37].veinsmobility 	startTime 	18005.1
scalar MyScenario.node[37].veinsmobility 	totalTime 	94.9
scalar MyScenario.node[37].veinsmobility 	stopTime 	18100
scalar MyScenario.node[37].veinsmobility 	minSpeed 	0.29258143436979
scalar MyScenario.node[37].veinsmobility 	maxSpeed 	15.436911815164
scalar MyScenario.node[37].veinsmobility 	totalDistance 	1120.8330023661
scalar MyScenario.node[37].veinsmobility 	totalCO2Emission 	306.67650587399
scalar MyScenario.node[85].appl 	generatedWSMs 	0
scalar MyScenario.node[85].appl 	receivedWSMs 	0
scalar MyScenario.node[85].appl 	generatedBSMs 	16
scalar MyScenario.node[85].appl 	receivedBSMs 	33
scalar MyScenario.node[85].appl 	generatedWSAs 	0
scalar MyScenario.node[85].appl 	receivedWSAs 	0
scalar MyScenario.node[85].nic.phy80211p 	busyTime 	0.00020550898203593
scalar MyScenario.node[85].nic.mac1609_4 	ReceivedUnicastPackets 	0
scalar MyScenario.node[85].nic.mac1609_4 	ReceivedBroadcasts 	33
scalar MyScenario.node[85].nic.mac1609_4 	SentPackets 	16
scalar MyScenario.node[85].nic.mac1609_4 	SNIRLostPackets 	0
scalar MyScenario.node[85].nic.mac1609_4 	RXTXLostPackets 	0
scalar MyScenario.node[85].nic.mac1609_4 	TotalLostPackets 	0
scalar MyScenario.node[85].nic.mac1609_4 	DroppedPacketsInMac 	0
scalar MyScenario.node[85].nic.mac1609_4 	TooLittleTime 	0
scalar MyScenario.node[85].nic.mac1609_4 	TimesIntoBackoff 	16
scalar MyScenario.node[85].nic.mac1609_4 	SlotsBackoff 	19
scalar MyScenario.node[85].nic.mac1609_4 	NumInternalContention 	0
scalar MyScenario.node[85].nic.mac1609_4 	totalBusyTime 	0.005112
scalar MyScenario.node[85].veinsmobility 	startTime 	18083.3
scalar MyScenario.node[85].veinsmobility 	totalTime 	16.7
scalar MyScenario.node[85].veinsmobility 	stopTime 	18100
scalar MyScenario.node[85].veinsmobility 	minSpeed 	17.161634380319
scalar MyScenario.node[85].veinsmobility 	maxSpeed 	17.290899724687
scalar MyScenario.node[85].veinsmobility 	totalDistance 	289.32721026746
scalar MyScenario.node[85].veinsmobility 	totalCO2Emission 	44.98225905352
scalar MyScenario.node[25].appl 	generatedWSMs 	0
scalar MyScenario.node[25].appl 	receivedWSMs 	0
scalar MyScenario.node[25].appl 	generatedBSMs 	100
scalar MyScenario.node[25].appl 	receivedBSMs 	374
scalar MyScenario.node[25].appl 	generatedWSAs 	0
scalar MyScenario.node[25].appl 	receivedWSAs 	0
scalar MyScenario.node[25].nic.phy80211p 	busyTime 	0.00038896
scalar MyScenario.node[25].nic.mac1609_4 	ReceivedUnicastPackets 	0
scalar MyScenario.node[25].nic.mac1609_4 	ReceivedBroadcasts 	374
scalar MyScenario.node[25].nic.mac1609_4 	SentPackets 	100
scalar MyScenario.node[25].nic.mac1609_4 	SNIRLostPackets 	0
scalar MyScenario.node[25].nic.mac1609_4 	RXTXLostPackets 	0
scalar MyScenario.node[25].nic.mac1609_4 	TotalLostPackets 	0
scalar MyScenario.node[25].nic.mac1609_4 	DroppedPacketsInMac 	0
scalar MyScenario.node[25].nic.mac1609_4 	TooLittleTime 	0
scalar MyScenario.node[25].nic.mac1609_4 	TimesIntoBackoff 	100
scalar MyScenario.node[25].nic.mac1609_4 	SlotsBackoff 	164
scalar MyScenario.node[25].nic.mac1609_4 	NumInternalContention 	0
scalar MyScenario.node[25].nic.mac1609_4 	totalBusyTime 	0.049396
scalar MyScenario.node[25].veinsmobility 	startTime 	18000
scalar MyScenario.node[25].veinsmobility 	totalTime 	100
scalar MyScenario.node[25].veinsmobility 	stopTime 	18100
scalar MyScenario.node[25].veinsmobility 	minSpeed 	0
scalar MyScenario.node[25].veinsmobility 	maxSpeed 	13.912514574144
scalar MyScenario.node[25].veinsmobility 	totalDistance 	697.17449207105
scalar MyScenario.node[25].veinsmobility 	totalCO2Emission 	209.91720449018
scalar MyScenario.node[28].appl 	generatedWSMs 	0
scalar MyScenario.node[28].appl 	receivedWSMs 	0
scalar MyScenario.node[28].appl 	generatedBSMs 	100
scalar MyScenario.node[28].appl 	receivedBSMs 	540
scalar MyScenario.node[28].appl 	generatedWSAs 	0
scalar MyScenario.node[28].appl 	receivedWSAs 	0
scalar MyScenario.node[28].nic.phy80211p 	busyTime 	0.0005616
scalar MyScenario.node[28].nic.mac1609_4 	ReceivedUnicastPackets 	0
scalar MyScenario.node[28].nic.mac1609_4 	ReceivedBroadcasts 	540
scalar MyScenario.node[28].nic.mac1609_4 	SentPackets 	100
scalar MyScenario.node[28].nic.mac1609_4 	SNIRLostPackets 	0
scalar MyScenario.node[28].nic.mac1609_4 	RXTXLostPackets 	0
scalar MyScenario.node[28].nic.mac1609_4 	TotalLostPackets 	0
scalar MyScenario.node[28].nic.mac1609_4 	DroppedPacketsInMac 	0
scalar MyScenario.node[28].nic.mac1609_4 	TooLittleTime 	0
scalar MyScenario.node[28].nic.mac1609_4 	TimesIntoBackoff 	100
scalar MyScenario.node[28].nic.mac1609_4 	SlotsBackoff 	141
scalar MyScenario.node[28].nic.mac1609_4 	NumInternalContention 	0
scalar MyScenario.node[28].nic.mac1609_4 	totalBusyTime 	0.06666
scalar MyScenario.node[28].veinsmobility 	startTime 	18000
scalar MyScenario.node[28].veinsmobility 	totalTime 	100
scalar MyScenario.node[28].veinsmobility 	stopTime 	18100
scalar MyScenario.node[28].veinsmobility 	minSpeed 	0
scalar MyScenario.node[28].veinsmobility 	maxSpeed 	13.603607944618
scalar MyScenario.node[28].veinsmobility 	totalDistance 	930.67683888703
scalar MyScenario.node[28].veinsmobility 	totalCO2Emission 	206.71224937529
scalar MyScenario.node[30].appl 	generatedWSMs 	0
scalar MyScenario.node[30].appl 	receivedWSMs 	0
scalar MyScenario.node[30].appl 	generatedBSMs 	100
scalar MyScenario.node[30].appl 	receivedBSMs 	183
scalar MyScenario.node[30].appl 	generatedWSAs 	0
scalar MyScenario.node[30].appl 	receivedWSAs 	0
scalar MyScenario.node[30].nic.phy80211p 	busyTime 	0.00019032
scalar MyScenario.node[30].nic.mac1609_4 	ReceivedUnicastPackets 	0
scalar MyScenario.node[30].nic.mac1609_4 	ReceivedBroadcasts 	183
scalar MyScenario.node[30].nic.mac1609_4 	SentPackets 	100
scalar MyScenario.node[30].nic.mac1609_4 	SNIRLostPackets 	0
scalar MyScenario.node[30].nic.mac1609_4 	RXTXLostPackets 	0
scalar MyScenario.node[30].nic.mac1609_4 	TotalLostPackets 	0
scalar MyScenario.node[30].nic.mac1609_4 	DroppedPacketsInMac 	0
scalar MyScenario.node[30].nic.mac1609_4 	TooLittleTime 	0
scalar MyScenario.node[30].nic.mac1609_4 	TimesIntoBackoff 	100
scalar MyScenario.node[30].nic.mac1609_4 	SlotsBackoff 	159
scalar MyScenario.node[30].nic.mac1609_4 	NumInternalContention 	0
scalar MyScenario.node[30].nic.mac1609_4 	totalBusyTime 	0.029532
scalar MyScenario.node[30].veinsmobility 	startTime 	18000
scalar MyScenario.node[30].veinsmobility 	totalTime 	100
scalar MyScenario.node[30].veinsmobility 	stopTime 	18100
scalar MyScenario.node[30].veinsmobility 	minSpeed 	0
scalar MyScenario.node[30].veinsmobility 	maxSpeed 	17.897561352994
scalar MyScenario.node[30].veinsmobility 	totalDistance 	1128.2714896152
scalar MyScenario.node[30].veinsmobility 	totalCO2Emission 	320.35214667787
