version 2
run AttackerType4-14-20180205-17:20:05-85860
attr configname AttackerType4
attr datetime 20180205-17:20:05
attr experiment AttackerType4
attr inifile omnetpp_14.ini
attr iterationvars "$start=3, $0=0.3"
attr iterationvarsf start=3,0.3-
attr measurement "$start=3, $0=0.3"
attr network MyScenario
attr processid 85860
attr repetition 4
attr replication #4
attr resultdir results
attr runnumber 14
attr seedset 4
attr start 3
param **.**.**.debug false
param **.**.nic.**.debug false
param **.coreDebug false
param **.debug false
param *.**.nic.mac1609_4.bitrate 6Mbps
param *.**.nic.mac1609_4.txPower 20mW
param *.**.nic.mac1609_4.useServiceChannel false
param *.**.nic.phy80211p.analogueModels "xmldoc(\"config.xml\")"
param *.**.nic.phy80211p.antenna "xmldoc(\"antenna.xml\", \"/root/Antenna[@id='monopole']\")"
param *.**.nic.phy80211p.decider "xmldoc(\"config.xml\")"
param *.**.nic.phy80211p.sensitivity -89dBm
param *.**.nic.phy80211p.thermalNoise -110dBm
param *.**.nic.phy80211p.usePropagationDelay true
param *.**.nic.phy80211p.useThermalNoise true
param *.**.veinsmobility.x 0
param *.**.veinsmobility.y 0
param *.**.veinsmobility.z 1.895
param *.**.veinsmobilityType.debug false
param *.annotations.draw false
param *.connectionManager.drawMaxIntfDist false
param *.connectionManager.maxInterfDist 2600m
param *.connectionManager.sendDirect true
param *.manager.autoShutdown true
param *.manager.configFile "\"dua.static.sumocfg\""
param *.manager.firstStepAt 3h
param *.manager.host "\"localhost\""
param *.manager.launchConfig "xmldoc(\"luxembourg.launchd.xml\")"
param *.manager.roiRects "\"2300,5400-6300,6300\""
param *.manager.seed 4
param *.manager.updateInterval 0.1s
param *.node[*].appl.attackerProbability 0.3
param *.node[*].appl.attackerType 4
param *.node[*].appl.beaconInterval 1s
param *.node[*].appl.dataOnSch false
param *.node[*].appl.headerLength "80 bit"
param *.node[*].appl.sendBeacons true
param *.node[*].appl.traceGroundTruthJSONFile "\"GroundTruthJSONlog\""
param *.node[*].appl.traceJSONFile "\"JSONlog-\""
param *.node[*].applType "\"AttackerApp\""
param *.obstacles.debug false
param *.obstacles.obstacles "xmldoc(\"config.xml\", \"//AnalogueModel[@type='SimpleObstacleShadowing']/obstacles\")"
param *.playgroundSizeX 13640m
param *.playgroundSizeY 11500m
param *.playgroundSizeZ 50m

scalar _runattrs_ 	start 	3
scalar MyScenario.node[5].appl 	generatedWSMs 	0
scalar MyScenario.node[5].appl 	receivedWSMs 	0
scalar MyScenario.node[5].appl 	generatedBSMs 	3
scalar MyScenario.node[5].appl 	receivedBSMs 	8
scalar MyScenario.node[5].appl 	generatedWSAs 	0
scalar MyScenario.node[5].appl 	receivedWSAs 	0
scalar MyScenario.node[5].nic.phy80211p 	busyTime 	0.00036173913043478
scalar MyScenario.node[5].nic.mac1609_4 	ReceivedUnicastPackets 	0
scalar MyScenario.node[5].nic.mac1609_4 	ReceivedBroadcasts 	8
scalar MyScenario.node[5].nic.mac1609_4 	SentPackets 	3
scalar MyScenario.node[5].nic.mac1609_4 	SNIRLostPackets 	0
scalar MyScenario.node[5].nic.mac1609_4 	RXTXLostPackets 	0
scalar MyScenario.node[5].nic.mac1609_4 	TotalLostPackets 	0
scalar MyScenario.node[5].nic.mac1609_4 	DroppedPacketsInMac 	0
scalar MyScenario.node[5].nic.mac1609_4 	TooLittleTime 	0
scalar MyScenario.node[5].nic.mac1609_4 	TimesIntoBackoff 	3
scalar MyScenario.node[5].nic.mac1609_4 	SlotsBackoff 	2
scalar MyScenario.node[5].nic.mac1609_4 	NumInternalContention 	0
scalar MyScenario.node[5].nic.mac1609_4 	totalBusyTime 	0.001147
scalar MyScenario.node[5].veinsmobility 	startTime 	10800
scalar MyScenario.node[5].veinsmobility 	totalTime 	2.2
scalar MyScenario.node[5].veinsmobility 	stopTime 	10802.3
scalar MyScenario.node[5].veinsmobility 	minSpeed 	36.84868973336
scalar MyScenario.node[5].veinsmobility 	maxSpeed 	36.974692896845
scalar MyScenario.node[5].veinsmobility 	totalDistance 	81.303990364574
scalar MyScenario.node[5].veinsmobility 	totalCO2Emission 	15.88864553984
scalar MyScenario.node[2].appl 	generatedWSMs 	0
scalar MyScenario.node[2].appl 	receivedWSMs 	0
scalar MyScenario.node[2].appl 	generatedBSMs 	4
scalar MyScenario.node[2].appl 	receivedBSMs 	8
scalar MyScenario.node[2].appl 	generatedWSAs 	0
scalar MyScenario.node[2].appl 	receivedWSAs 	0
scalar MyScenario.node[2].nic.phy80211p 	busyTime 	0.000208
scalar MyScenario.node[2].nic.mac1609_4 	ReceivedUnicastPackets 	0
scalar MyScenario.node[2].nic.mac1609_4 	ReceivedBroadcasts 	8
scalar MyScenario.node[2].nic.mac1609_4 	SentPackets 	4
scalar MyScenario.node[2].nic.mac1609_4 	SNIRLostPackets 	0
scalar MyScenario.node[2].nic.mac1609_4 	RXTXLostPackets 	0
scalar MyScenario.node[2].nic.mac1609_4 	TotalLostPackets 	0
scalar MyScenario.node[2].nic.mac1609_4 	DroppedPacketsInMac 	0
scalar MyScenario.node[2].nic.mac1609_4 	TooLittleTime 	0
scalar MyScenario.node[2].nic.mac1609_4 	TimesIntoBackoff 	4
scalar MyScenario.node[2].nic.mac1609_4 	SlotsBackoff 	5
scalar MyScenario.node[2].nic.mac1609_4 	NumInternalContention 	0
scalar MyScenario.node[2].nic.mac1609_4 	totalBusyTime 	0.001252
scalar MyScenario.node[2].veinsmobility 	startTime 	10800
scalar MyScenario.node[2].veinsmobility 	totalTime 	3.9
scalar MyScenario.node[2].veinsmobility 	stopTime 	10804
scalar MyScenario.node[2].veinsmobility 	minSpeed 	29.886281244677
scalar MyScenario.node[2].veinsmobility 	maxSpeed 	29.997991324286
scalar MyScenario.node[2].veinsmobility 	totalDistance 	116.74653092794
scalar MyScenario.node[2].veinsmobility 	totalCO2Emission 	19.10081913781
scalar MyScenario.node[1].appl 	generatedWSMs 	0
scalar MyScenario.node[1].appl 	receivedWSMs 	0
scalar MyScenario.node[1].appl 	generatedBSMs 	5
scalar MyScenario.node[1].appl 	receivedBSMs 	18
scalar MyScenario.node[1].appl 	generatedWSAs 	0
scalar MyScenario.node[1].appl 	receivedWSAs 	0
scalar MyScenario.node[1].nic.phy80211p 	busyTime 	0.00039
scalar MyScenario.node[1].nic.mac1609_4 	ReceivedUnicastPackets 	0
scalar MyScenario.node[1].nic.mac1609_4 	ReceivedBroadcasts 	18
scalar MyScenario.node[1].nic.mac1609_4 	SentPackets 	5
scalar MyScenario.node[1].nic.mac1609_4 	SNIRLostPackets 	0
scalar MyScenario.node[1].nic.mac1609_4 	RXTXLostPackets 	0
scalar MyScenario.node[1].nic.mac1609_4 	TotalLostPackets 	0
scalar MyScenario.node[1].nic.mac1609_4 	DroppedPacketsInMac 	0
scalar MyScenario.node[1].nic.mac1609_4 	TooLittleTime 	0
scalar MyScenario.node[1].nic.mac1609_4 	TimesIntoBackoff 	5
scalar MyScenario.node[1].nic.mac1609_4 	SlotsBackoff 	8
scalar MyScenario.node[1].nic.mac1609_4 	NumInternalContention 	0
scalar MyScenario.node[1].nic.mac1609_4 	totalBusyTime 	0.002397
scalar MyScenario.node[1].veinsmobility 	startTime 	10800
scalar MyScenario.node[1].veinsmobility 	totalTime 	4.7
scalar MyScenario.node[1].veinsmobility 	stopTime 	10804.8
scalar MyScenario.node[1].veinsmobility 	minSpeed 	42.61180404296
scalar MyScenario.node[1].veinsmobility 	maxSpeed 	42.756552826619
scalar MyScenario.node[1].veinsmobility 	totalDistance 	200.6005106615
scalar MyScenario.node[1].veinsmobility 	totalCO2Emission 	48.998418635561
scalar MyScenario.node[0].appl 	generatedWSMs 	0
scalar MyScenario.node[0].appl 	receivedWSMs 	0
scalar MyScenario.node[0].appl 	generatedBSMs 	12
scalar MyScenario.node[0].appl 	receivedBSMs 	49
scalar MyScenario.node[0].appl 	generatedWSAs 	0
scalar MyScenario.node[0].appl 	receivedWSAs 	0
scalar MyScenario.node[0].nic.phy80211p 	busyTime 	0.00040444444444444
scalar MyScenario.node[0].nic.mac1609_4 	ReceivedUnicastPackets 	0
scalar MyScenario.node[0].nic.mac1609_4 	ReceivedBroadcasts 	49
scalar MyScenario.node[0].nic.mac1609_4 	SentPackets 	12
scalar MyScenario.node[0].nic.mac1609_4 	SNIRLostPackets 	0
scalar MyScenario.node[0].nic.mac1609_4 	RXTXLostPackets 	0
scalar MyScenario.node[0].nic.mac1609_4 	TotalLostPackets 	0
scalar MyScenario.node[0].nic.mac1609_4 	DroppedPacketsInMac 	0
scalar MyScenario.node[0].nic.mac1609_4 	TooLittleTime 	0
scalar MyScenario.node[0].nic.mac1609_4 	TimesIntoBackoff 	12
scalar MyScenario.node[0].nic.mac1609_4 	SlotsBackoff 	18
scalar MyScenario.node[0].nic.mac1609_4 	NumInternalContention 	0
scalar MyScenario.node[0].nic.mac1609_4 	totalBusyTime 	0.006356
scalar MyScenario.node[0].veinsmobility 	startTime 	10800
scalar MyScenario.node[0].veinsmobility 	totalTime 	12.5
scalar MyScenario.node[0].veinsmobility 	stopTime 	10812.6
scalar MyScenario.node[0].veinsmobility 	minSpeed 	32.303515555215
scalar MyScenario.node[0].veinsmobility 	maxSpeed 	32.449841028016
scalar MyScenario.node[0].veinsmobility 	totalDistance 	404.12751399132
scalar MyScenario.node[0].veinsmobility 	totalCO2Emission 	75.259426437998
scalar MyScenario.node[3].appl 	generatedWSMs 	0
scalar MyScenario.node[3].appl 	receivedWSMs 	0
scalar MyScenario.node[3].appl 	generatedBSMs 	19
scalar MyScenario.node[3].appl 	receivedBSMs 	74
scalar MyScenario.node[3].appl 	generatedWSAs 	0
scalar MyScenario.node[3].appl 	receivedWSAs 	0
scalar MyScenario.node[3].nic.phy80211p 	busyTime 	0.00042054644808743
scalar MyScenario.node[3].nic.mac1609_4 	ReceivedUnicastPackets 	0
scalar MyScenario.node[3].nic.mac1609_4 	ReceivedBroadcasts 	74
scalar MyScenario.node[3].nic.mac1609_4 	SentPackets 	19
scalar MyScenario.node[3].nic.mac1609_4 	SNIRLostPackets 	0
scalar MyScenario.node[3].nic.mac1609_4 	RXTXLostPackets 	0
scalar MyScenario.node[3].nic.mac1609_4 	TotalLostPackets 	0
scalar MyScenario.node[3].nic.mac1609_4 	DroppedPacketsInMac 	0
scalar MyScenario.node[3].nic.mac1609_4 	TooLittleTime 	0
scalar MyScenario.node[3].nic.mac1609_4 	TimesIntoBackoff 	19
scalar MyScenario.node[3].nic.mac1609_4 	SlotsBackoff 	29
scalar MyScenario.node[3].nic.mac1609_4 	NumInternalContention 	0
scalar MyScenario.node[3].nic.mac1609_4 	totalBusyTime 	0.009691
scalar MyScenario.node[3].veinsmobility 	startTime 	10800
scalar MyScenario.node[3].veinsmobility 	totalTime 	18.2
scalar MyScenario.node[3].veinsmobility 	stopTime 	10818.3
scalar MyScenario.node[3].veinsmobility 	minSpeed 	35.275330675518
scalar MyScenario.node[3].veinsmobility 	maxSpeed 	35.414256452163
scalar MyScenario.node[3].veinsmobility 	totalDistance 	643.2624042085
scalar MyScenario.node[3].veinsmobility 	totalCO2Emission 	127.52414390794
scalar MyScenario.node[9].appl 	generatedWSMs 	0
scalar MyScenario.node[9].appl 	receivedWSMs 	0
scalar MyScenario.node[9].appl 	generatedBSMs 	22
scalar MyScenario.node[9].appl 	receivedBSMs 	117
scalar MyScenario.node[9].appl 	generatedWSAs 	0
scalar MyScenario.node[9].appl 	receivedWSAs 	0
scalar MyScenario.node[9].nic.phy80211p 	busyTime 	0.00054565022421525
scalar MyScenario.node[9].nic.mac1609_4 	ReceivedUnicastPackets 	0
scalar MyScenario.node[9].nic.mac1609_4 	ReceivedBroadcasts 	117
scalar MyScenario.node[9].nic.mac1609_4 	SentPackets 	22
scalar MyScenario.node[9].nic.mac1609_4 	SNIRLostPackets 	0
scalar MyScenario.node[9].nic.mac1609_4 	RXTXLostPackets 	0
scalar MyScenario.node[9].nic.mac1609_4 	TotalLostPackets 	0
scalar MyScenario.node[9].nic.mac1609_4 	DroppedPacketsInMac 	0
scalar MyScenario.node[9].nic.mac1609_4 	TooLittleTime 	0
scalar MyScenario.node[9].nic.mac1609_4 	TimesIntoBackoff 	22
scalar MyScenario.node[9].nic.mac1609_4 	SlotsBackoff 	36
scalar MyScenario.node[9].nic.mac1609_4 	NumInternalContention 	0
scalar MyScenario.node[9].nic.mac1609_4 	totalBusyTime 	0.014478
scalar MyScenario.node[9].veinsmobility 	startTime 	10803.1
scalar MyScenario.node[9].veinsmobility 	totalTime 	22.2
scalar MyScenario.node[9].veinsmobility 	stopTime 	10825.4
scalar MyScenario.node[9].veinsmobility 	minSpeed 	40.568728245161
scalar MyScenario.node[9].veinsmobility 	maxSpeed 	40.698274283702
scalar MyScenario.node[9].veinsmobility 	totalDistance 	902.07613453301
scalar MyScenario.node[9].veinsmobility 	totalCO2Emission 	204.67129888621
scalar MyScenario.node[8].appl 	generatedWSMs 	0
scalar MyScenario.node[8].appl 	receivedWSMs 	0
scalar MyScenario.node[8].appl 	generatedBSMs 	25
scalar MyScenario.node[8].appl 	receivedBSMs 	127
scalar MyScenario.node[8].appl 	generatedWSAs 	0
scalar MyScenario.node[8].appl 	receivedWSAs 	0
scalar MyScenario.node[8].nic.phy80211p 	busyTime 	0.00053473684210522
scalar MyScenario.node[8].nic.mac1609_4 	ReceivedUnicastPackets 	0
scalar MyScenario.node[8].nic.mac1609_4 	ReceivedBroadcasts 	127
scalar MyScenario.node[8].nic.mac1609_4 	SentPackets 	25
scalar MyScenario.node[8].nic.mac1609_4 	SNIRLostPackets 	0
scalar MyScenario.node[8].nic.mac1609_4 	RXTXLostPackets 	0
scalar MyScenario.node[8].nic.mac1609_4 	TotalLostPackets 	0
scalar MyScenario.node[8].nic.mac1609_4 	DroppedPacketsInMac 	0
scalar MyScenario.node[8].nic.mac1609_4 	TooLittleTime 	0
scalar MyScenario.node[8].nic.mac1609_4 	TimesIntoBackoff 	25
scalar MyScenario.node[8].nic.mac1609_4 	SlotsBackoff 	39
scalar MyScenario.node[8].nic.mac1609_4 	NumInternalContention 	0
scalar MyScenario.node[8].nic.mac1609_4 	totalBusyTime 	0.015833
scalar MyScenario.node[8].veinsmobility 	startTime 	10802.7
scalar MyScenario.node[8].veinsmobility 	totalTime 	24.6
scalar MyScenario.node[8].veinsmobility 	stopTime 	10827.4
scalar MyScenario.node[8].veinsmobility 	minSpeed 	34.997059223745
scalar MyScenario.node[8].veinsmobility 	maxSpeed 	37.093982775044
scalar MyScenario.node[8].veinsmobility 	totalDistance 	904.07875542998
scalar MyScenario.node[8].veinsmobility 	totalCO2Emission 	199.70375966683
scalar MyScenario.node[7].appl 	generatedWSMs 	0
scalar MyScenario.node[7].appl 	receivedWSMs 	0
scalar MyScenario.node[7].appl 	generatedBSMs 	26
scalar MyScenario.node[7].appl 	receivedBSMs 	143
scalar MyScenario.node[7].appl 	generatedWSAs 	0
scalar MyScenario.node[7].appl 	receivedWSAs 	0
scalar MyScenario.node[7].nic.phy80211p 	busyTime 	0.00056333333333333
scalar MyScenario.node[7].nic.mac1609_4 	ReceivedUnicastPackets 	0
scalar MyScenario.node[7].nic.mac1609_4 	ReceivedBroadcasts 	143
scalar MyScenario.node[7].nic.mac1609_4 	SentPackets 	26
scalar MyScenario.node[7].nic.mac1609_4 	SNIRLostPackets 	0
scalar MyScenario.node[7].nic.mac1609_4 	RXTXLostPackets 	0
scalar MyScenario.node[7].nic.mac1609_4 	TotalLostPackets 	0
scalar MyScenario.node[7].nic.mac1609_4 	DroppedPacketsInMac 	0
scalar MyScenario.node[7].nic.mac1609_4 	TooLittleTime 	0
scalar MyScenario.node[7].nic.mac1609_4 	TimesIntoBackoff 	26
scalar MyScenario.node[7].nic.mac1609_4 	SlotsBackoff 	35
scalar MyScenario.node[7].nic.mac1609_4 	NumInternalContention 	0
scalar MyScenario.node[7].nic.mac1609_4 	totalBusyTime 	0.017602
scalar MyScenario.node[7].veinsmobility 	startTime 	10801.3
scalar MyScenario.node[7].veinsmobility 	totalTime 	26.3
scalar MyScenario.node[7].veinsmobility 	stopTime 	10827.7
scalar MyScenario.node[7].veinsmobility 	minSpeed 	34.209009435265
scalar MyScenario.node[7].veinsmobility 	maxSpeed 	34.355333144898
scalar MyScenario.node[7].veinsmobility 	totalDistance 	900.6635811506
scalar MyScenario.node[7].veinsmobility 	totalCO2Emission 	174.96974953025
scalar MyScenario.node[10].appl 	generatedWSMs 	0
scalar MyScenario.node[10].appl 	receivedWSMs 	0
scalar MyScenario.node[10].appl 	generatedBSMs 	28
scalar MyScenario.node[10].appl 	receivedBSMs 	143
scalar MyScenario.node[10].appl 	generatedWSAs 	0
scalar MyScenario.node[10].appl 	receivedWSAs 	0
scalar MyScenario.node[10].nic.phy80211p 	busyTime 	0.00053496402877698
scalar MyScenario.node[10].nic.mac1609_4 	ReceivedUnicastPackets 	0
scalar MyScenario.node[10].nic.mac1609_4 	ReceivedBroadcasts 	143
scalar MyScenario.node[10].nic.mac1609_4 	SentPackets 	28
scalar MyScenario.node[10].nic.mac1609_4 	SNIRLostPackets 	0
scalar MyScenario.node[10].nic.mac1609_4 	RXTXLostPackets 	0
scalar MyScenario.node[10].nic.mac1609_4 	TotalLostPackets 	0
scalar MyScenario.node[10].nic.mac1609_4 	DroppedPacketsInMac 	0
scalar MyScenario.node[10].nic.mac1609_4 	TooLittleTime 	0
scalar MyScenario.node[10].nic.mac1609_4 	TimesIntoBackoff 	28
scalar MyScenario.node[10].nic.mac1609_4 	SlotsBackoff 	42
scalar MyScenario.node[10].nic.mac1609_4 	NumInternalContention 	0
scalar MyScenario.node[10].nic.mac1609_4 	totalBusyTime 	0.017812
scalar MyScenario.node[10].veinsmobility 	startTime 	10809.3
scalar MyScenario.node[10].veinsmobility 	totalTime 	27.7
scalar MyScenario.node[10].veinsmobility 	stopTime 	10837.1
scalar MyScenario.node[10].veinsmobility 	minSpeed 	32.442141775043
scalar MyScenario.node[10].veinsmobility 	maxSpeed 	32.581532944307
scalar MyScenario.node[10].veinsmobility 	totalDistance 	901.52359103427
scalar MyScenario.node[10].veinsmobility 	totalCO2Emission 	164.13284998411
scalar MyScenario.node[11].appl 	generatedWSMs 	0
scalar MyScenario.node[11].appl 	receivedWSMs 	0
scalar MyScenario.node[11].appl 	generatedBSMs 	28
scalar MyScenario.node[11].appl 	receivedBSMs 	133
scalar MyScenario.node[11].appl 	generatedWSAs 	0
scalar MyScenario.node[11].appl 	receivedWSAs 	0
scalar MyScenario.node[11].nic.phy80211p 	busyTime 	0.00049755395683453
scalar MyScenario.node[11].nic.mac1609_4 	ReceivedUnicastPackets 	0
scalar MyScenario.node[11].nic.mac1609_4 	ReceivedBroadcasts 	133
scalar MyScenario.node[11].nic.mac1609_4 	SentPackets 	28
scalar MyScenario.node[11].nic.mac1609_4 	SNIRLostPackets 	0
scalar MyScenario.node[11].nic.mac1609_4 	RXTXLostPackets 	0
scalar MyScenario.node[11].nic.mac1609_4 	TotalLostPackets 	0
scalar MyScenario.node[11].nic.mac1609_4 	DroppedPacketsInMac 	0
scalar MyScenario.node[11].nic.mac1609_4 	TooLittleTime 	0
scalar MyScenario.node[11].nic.mac1609_4 	TimesIntoBackoff 	28
scalar MyScenario.node[11].nic.mac1609_4 	SlotsBackoff 	38
scalar MyScenario.node[11].nic.mac1609_4 	NumInternalContention 	0
scalar MyScenario.node[11].nic.mac1609_4 	totalBusyTime 	0.016772
scalar MyScenario.node[11].veinsmobility 	startTime 	10810.5
scalar MyScenario.node[11].veinsmobility 	totalTime 	27.7
scalar MyScenario.node[11].veinsmobility 	stopTime 	10838.3
scalar MyScenario.node[11].veinsmobility 	minSpeed 	32.39481914238
scalar MyScenario.node[11].veinsmobility 	maxSpeed 	32.662516563999
scalar MyScenario.node[11].veinsmobility 	totalDistance 	901.9396280445
scalar MyScenario.node[11].veinsmobility 	totalCO2Emission 	171.16708777545
scalar MyScenario.node[12].appl 	generatedWSMs 	0
scalar MyScenario.node[12].appl 	receivedWSMs 	0
scalar MyScenario.node[12].appl 	generatedBSMs 	26
scalar MyScenario.node[12].appl 	receivedBSMs 	113
scalar MyScenario.node[12].appl 	generatedWSAs 	0
scalar MyScenario.node[12].appl 	receivedWSAs 	0
scalar MyScenario.node[12].nic.phy80211p 	busyTime 	0.00044515151515151
scalar MyScenario.node[12].nic.mac1609_4 	ReceivedUnicastPackets 	0
scalar MyScenario.node[12].nic.mac1609_4 	ReceivedBroadcasts 	113
scalar MyScenario.node[12].nic.mac1609_4 	SentPackets 	26
scalar MyScenario.node[12].nic.mac1609_4 	SNIRLostPackets 	0
scalar MyScenario.node[12].nic.mac1609_4 	RXTXLostPackets 	0
scalar MyScenario.node[12].nic.mac1609_4 	TotalLostPackets 	0
scalar MyScenario.node[12].nic.mac1609_4 	DroppedPacketsInMac 	0
scalar MyScenario.node[12].nic.mac1609_4 	TooLittleTime 	0
scalar MyScenario.node[12].nic.mac1609_4 	TimesIntoBackoff 	26
scalar MyScenario.node[12].nic.mac1609_4 	SlotsBackoff 	34
scalar MyScenario.node[12].nic.mac1609_4 	NumInternalContention 	0
scalar MyScenario.node[12].nic.mac1609_4 	totalBusyTime 	0.014482
scalar MyScenario.node[12].veinsmobility 	startTime 	10813.1
scalar MyScenario.node[12].veinsmobility 	totalTime 	26.3
scalar MyScenario.node[12].veinsmobility 	stopTime 	10839.5
scalar MyScenario.node[12].veinsmobility 	minSpeed 	32.740194493363
scalar MyScenario.node[12].veinsmobility 	maxSpeed 	35.556713822727
scalar MyScenario.node[12].veinsmobility 	totalDistance 	899.24718341668
scalar MyScenario.node[12].veinsmobility 	totalCO2Emission 	162.42344656722
scalar MyScenario.node[13].appl 	generatedWSMs 	0
scalar MyScenario.node[13].appl 	receivedWSMs 	0
scalar MyScenario.node[13].appl 	generatedBSMs 	31
scalar MyScenario.node[13].appl 	receivedBSMs 	120
scalar MyScenario.node[13].appl 	generatedWSAs 	0
scalar MyScenario.node[13].appl 	receivedWSAs 	0
scalar MyScenario.node[13].nic.phy80211p 	busyTime 	0.00041324503311258
scalar MyScenario.node[13].nic.mac1609_4 	ReceivedUnicastPackets 	0
scalar MyScenario.node[13].nic.mac1609_4 	ReceivedBroadcasts 	120
scalar MyScenario.node[13].nic.mac1609_4 	SentPackets 	31
scalar MyScenario.node[13].nic.mac1609_4 	SNIRLostPackets 	0
scalar MyScenario.node[13].nic.mac1609_4 	RXTXLostPackets 	0
scalar MyScenario.node[13].nic.mac1609_4 	TotalLostPackets 	0
scalar MyScenario.node[13].nic.mac1609_4 	DroppedPacketsInMac 	0
scalar MyScenario.node[13].nic.mac1609_4 	TooLittleTime 	0
scalar MyScenario.node[13].nic.mac1609_4 	TimesIntoBackoff 	31
scalar MyScenario.node[13].nic.mac1609_4 	SlotsBackoff 	43
scalar MyScenario.node[13].nic.mac1609_4 	NumInternalContention 	0
scalar MyScenario.node[13].nic.mac1609_4 	totalBusyTime 	0.015735
scalar MyScenario.node[13].veinsmobility 	startTime 	10816
scalar MyScenario.node[13].veinsmobility 	totalTime 	30.1
scalar MyScenario.node[13].veinsmobility 	stopTime 	10846.2
scalar MyScenario.node[13].veinsmobility 	minSpeed 	29.880324256159
scalar MyScenario.node[13].veinsmobility 	maxSpeed 	29.999891487099
scalar MyScenario.node[13].veinsmobility 	totalDistance 	900.23458037702
scalar MyScenario.node[13].veinsmobility 	totalCO2Emission 	154.09742747858
scalar MyScenario.node[14].appl 	generatedWSMs 	0
scalar MyScenario.node[14].appl 	receivedWSMs 	0
scalar MyScenario.node[14].appl 	generatedBSMs 	29
scalar MyScenario.node[14].appl 	receivedBSMs 	117
scalar MyScenario.node[14].appl 	generatedWSAs 	0
scalar MyScenario.node[14].appl 	receivedWSAs 	0
scalar MyScenario.node[14].nic.phy80211p 	busyTime 	0.00042545454545455
scalar MyScenario.node[14].nic.mac1609_4 	ReceivedUnicastPackets 	0
scalar MyScenario.node[14].nic.mac1609_4 	ReceivedBroadcasts 	117
scalar MyScenario.node[14].nic.mac1609_4 	SentPackets 	29
scalar MyScenario.node[14].nic.mac1609_4 	SNIRLostPackets 	0
scalar MyScenario.node[14].nic.mac1609_4 	RXTXLostPackets 	0
scalar MyScenario.node[14].nic.mac1609_4 	TotalLostPackets 	0
scalar MyScenario.node[14].nic.mac1609_4 	DroppedPacketsInMac 	0
scalar MyScenario.node[14].nic.mac1609_4 	TooLittleTime 	0
scalar MyScenario.node[14].nic.mac1609_4 	TimesIntoBackoff 	29
scalar MyScenario.node[14].nic.mac1609_4 	SlotsBackoff 	39
scalar MyScenario.node[14].nic.mac1609_4 	NumInternalContention 	0
scalar MyScenario.node[14].nic.mac1609_4 	totalBusyTime 	0.015213
scalar MyScenario.node[14].veinsmobility 	startTime 	10818.9
scalar MyScenario.node[14].veinsmobility 	totalTime 	28.5
scalar MyScenario.node[14].veinsmobility 	stopTime 	10847.5
scalar MyScenario.node[14].veinsmobility 	minSpeed 	30.046844426514
scalar MyScenario.node[14].veinsmobility 	maxSpeed 	35.746001906191
scalar MyScenario.node[14].veinsmobility 	totalDistance 	900.74131841061
scalar MyScenario.node[14].veinsmobility 	totalCO2Emission 	141.85428566839
scalar MyScenario.node[16].appl 	generatedWSMs 	0
scalar MyScenario.node[16].appl 	receivedWSMs 	0
scalar MyScenario.node[16].appl 	generatedBSMs 	24
scalar MyScenario.node[16].appl 	receivedBSMs 	81
scalar MyScenario.node[16].appl 	generatedWSAs 	0
scalar MyScenario.node[16].appl 	receivedWSAs 	0
scalar MyScenario.node[16].nic.phy80211p 	busyTime 	0.00035846808510638
scalar MyScenario.node[16].nic.mac1609_4 	ReceivedUnicastPackets 	0
scalar MyScenario.node[16].nic.mac1609_4 	ReceivedBroadcasts 	81
scalar MyScenario.node[16].nic.mac1609_4 	SentPackets 	24
scalar MyScenario.node[16].nic.mac1609_4 	SNIRLostPackets 	0
scalar MyScenario.node[16].nic.mac1609_4 	RXTXLostPackets 	0
scalar MyScenario.node[16].nic.mac1609_4 	TotalLostPackets 	0
scalar MyScenario.node[16].nic.mac1609_4 	DroppedPacketsInMac 	0
scalar MyScenario.node[16].nic.mac1609_4 	TooLittleTime 	0
scalar MyScenario.node[16].nic.mac1609_4 	TimesIntoBackoff 	24
scalar MyScenario.node[16].nic.mac1609_4 	SlotsBackoff 	27
scalar MyScenario.node[16].nic.mac1609_4 	NumInternalContention 	0
scalar MyScenario.node[16].nic.mac1609_4 	totalBusyTime 	0.010944
scalar MyScenario.node[16].veinsmobility 	startTime 	10826.5
scalar MyScenario.node[16].veinsmobility 	totalTime 	23.4
scalar MyScenario.node[16].veinsmobility 	stopTime 	10850
scalar MyScenario.node[16].veinsmobility 	minSpeed 	34.783026897532
scalar MyScenario.node[16].veinsmobility 	maxSpeed 	39.196890368692
scalar MyScenario.node[16].veinsmobility 	totalDistance 	900.3316414115
scalar MyScenario.node[16].veinsmobility 	totalCO2Emission 	162.70974196813
scalar MyScenario.node[18].appl 	generatedWSMs 	0
scalar MyScenario.node[18].appl 	receivedWSMs 	0
scalar MyScenario.node[18].appl 	generatedBSMs 	26
scalar MyScenario.node[18].appl 	receivedBSMs 	111
scalar MyScenario.node[18].appl 	generatedWSAs 	0
scalar MyScenario.node[18].appl 	receivedWSAs 	0
scalar MyScenario.node[18].nic.phy80211p 	busyTime 	0.00044571428571429
scalar MyScenario.node[18].nic.mac1609_4 	ReceivedUnicastPackets 	0
scalar MyScenario.node[18].nic.mac1609_4 	ReceivedBroadcasts 	111
scalar MyScenario.node[18].nic.mac1609_4 	SentPackets 	26
scalar MyScenario.node[18].nic.mac1609_4 	SNIRLostPackets 	0
scalar MyScenario.node[18].nic.mac1609_4 	RXTXLostPackets 	0
scalar MyScenario.node[18].nic.mac1609_4 	TotalLostPackets 	0
scalar MyScenario.node[18].nic.mac1609_4 	DroppedPacketsInMac 	0
scalar MyScenario.node[18].nic.mac1609_4 	TooLittleTime 	0
scalar MyScenario.node[18].nic.mac1609_4 	TimesIntoBackoff 	26
scalar MyScenario.node[18].nic.mac1609_4 	SlotsBackoff 	40
scalar MyScenario.node[18].nic.mac1609_4 	NumInternalContention 	0
scalar MyScenario.node[18].nic.mac1609_4 	totalBusyTime 	0.014274
scalar MyScenario.node[18].veinsmobility 	startTime 	10843.6
scalar MyScenario.node[18].veinsmobility 	totalTime 	25.8
scalar MyScenario.node[18].veinsmobility 	stopTime 	10869.5
scalar MyScenario.node[18].veinsmobility 	minSpeed 	34.880551205109
scalar MyScenario.node[18].veinsmobility 	maxSpeed 	35.007520688077
scalar MyScenario.node[18].veinsmobility 	totalDistance 	900.42279039771
scalar MyScenario.node[18].veinsmobility 	totalCO2Emission 	173.03718113857
scalar MyScenario.node[21].appl 	generatedWSMs 	0
scalar MyScenario.node[21].appl 	receivedWSMs 	0
scalar MyScenario.node[21].appl 	generatedBSMs 	23
scalar MyScenario.node[21].appl 	receivedBSMs 	106
scalar MyScenario.node[21].appl 	generatedWSAs 	0
scalar MyScenario.node[21].appl 	receivedWSAs 	0
scalar MyScenario.node[21].nic.phy80211p 	busyTime 	0.00047313304721026
scalar MyScenario.node[21].nic.mac1609_4 	ReceivedUnicastPackets 	0
scalar MyScenario.node[21].nic.mac1609_4 	ReceivedBroadcasts 	106
scalar MyScenario.node[21].nic.mac1609_4 	SentPackets 	23
scalar MyScenario.node[21].nic.mac1609_4 	SNIRLostPackets 	0
scalar MyScenario.node[21].nic.mac1609_4 	RXTXLostPackets 	0
scalar MyScenario.node[21].nic.mac1609_4 	TotalLostPackets 	0
scalar MyScenario.node[21].nic.mac1609_4 	DroppedPacketsInMac 	0
scalar MyScenario.node[21].nic.mac1609_4 	TooLittleTime 	0
scalar MyScenario.node[21].nic.mac1609_4 	TimesIntoBackoff 	23
scalar MyScenario.node[21].nic.mac1609_4 	SlotsBackoff 	32
scalar MyScenario.node[21].nic.mac1609_4 	NumInternalContention 	0
scalar MyScenario.node[21].nic.mac1609_4 	totalBusyTime 	0.013439
scalar MyScenario.node[21].veinsmobility 	startTime 	10848.2
scalar MyScenario.node[21].veinsmobility 	totalTime 	23.2
scalar MyScenario.node[21].veinsmobility 	stopTime 	10871.5
scalar MyScenario.node[21].veinsmobility 	minSpeed 	38.303875238346
scalar MyScenario.node[21].veinsmobility 	maxSpeed 	38.903794376028
scalar MyScenario.node[21].veinsmobility 	totalDistance 	900.63713221361
scalar MyScenario.node[21].veinsmobility 	totalCO2Emission 	189.47296556678
scalar MyScenario.node[19].appl 	generatedWSMs 	0
scalar MyScenario.node[19].appl 	receivedWSMs 	0
scalar MyScenario.node[19].appl 	generatedBSMs 	30
scalar MyScenario.node[19].appl 	receivedBSMs 	150
scalar MyScenario.node[19].appl 	generatedWSAs 	0
scalar MyScenario.node[19].appl 	receivedWSAs 	0
scalar MyScenario.node[19].nic.phy80211p 	busyTime 	0.00051827242524917
scalar MyScenario.node[19].nic.mac1609_4 	ReceivedUnicastPackets 	0
scalar MyScenario.node[19].nic.mac1609_4 	ReceivedBroadcasts 	150
scalar MyScenario.node[19].nic.mac1609_4 	SentPackets 	30
scalar MyScenario.node[19].nic.mac1609_4 	SNIRLostPackets 	0
scalar MyScenario.node[19].nic.mac1609_4 	RXTXLostPackets 	0
scalar MyScenario.node[19].nic.mac1609_4 	TotalLostPackets 	0
scalar MyScenario.node[19].nic.mac1609_4 	DroppedPacketsInMac 	0
scalar MyScenario.node[19].nic.mac1609_4 	TooLittleTime 	0
scalar MyScenario.node[19].nic.mac1609_4 	TimesIntoBackoff 	30
scalar MyScenario.node[19].nic.mac1609_4 	SlotsBackoff 	59
scalar MyScenario.node[19].nic.mac1609_4 	NumInternalContention 	0
scalar MyScenario.node[19].nic.mac1609_4 	totalBusyTime 	0.01875
scalar MyScenario.node[19].veinsmobility 	startTime 	10844.4
scalar MyScenario.node[19].veinsmobility 	totalTime 	30
scalar MyScenario.node[19].veinsmobility 	stopTime 	10874.5
scalar MyScenario.node[19].veinsmobility 	minSpeed 	29.885205180546
scalar MyScenario.node[19].veinsmobility 	maxSpeed 	29.999796722203
scalar MyScenario.node[19].veinsmobility 	totalDistance 	899.34465764492
scalar MyScenario.node[19].veinsmobility 	totalCO2Emission 	153.37198314112
scalar MyScenario.node[22].appl 	generatedWSMs 	0
scalar MyScenario.node[22].appl 	receivedWSMs 	0
scalar MyScenario.node[22].appl 	generatedBSMs 	27
scalar MyScenario.node[22].appl 	receivedBSMs 	139
scalar MyScenario.node[22].appl 	generatedWSAs 	0
scalar MyScenario.node[22].appl 	receivedWSAs 	0
scalar MyScenario.node[22].nic.phy80211p 	busyTime 	0.00053147058823529
scalar MyScenario.node[22].nic.mac1609_4 	ReceivedUnicastPackets 	0
scalar MyScenario.node[22].nic.mac1609_4 	ReceivedBroadcasts 	139
scalar MyScenario.node[22].nic.mac1609_4 	SentPackets 	27
scalar MyScenario.node[22].nic.mac1609_4 	SNIRLostPackets 	0
scalar MyScenario.node[22].nic.mac1609_4 	RXTXLostPackets 	0
scalar MyScenario.node[22].nic.mac1609_4 	TotalLostPackets 	0
scalar MyScenario.node[22].nic.mac1609_4 	DroppedPacketsInMac 	0
scalar MyScenario.node[22].nic.mac1609_4 	TooLittleTime 	0
scalar MyScenario.node[22].nic.mac1609_4 	TimesIntoBackoff 	27
scalar MyScenario.node[22].nic.mac1609_4 	SlotsBackoff 	45
scalar MyScenario.node[22].nic.mac1609_4 	NumInternalContention 	0
scalar MyScenario.node[22].nic.mac1609_4 	totalBusyTime 	0.017291
scalar MyScenario.node[22].veinsmobility 	startTime 	10848.4
scalar MyScenario.node[22].veinsmobility 	totalTime 	27.1
scalar MyScenario.node[22].veinsmobility 	stopTime 	10875.6
scalar MyScenario.node[22].veinsmobility 	minSpeed 	33.26778729157
scalar MyScenario.node[22].veinsmobility 	maxSpeed 	33.397428393342
scalar MyScenario.node[22].veinsmobility 	totalDistance 	902.17857827822
scalar MyScenario.node[22].veinsmobility 	totalCO2Emission 	167.86843334318
scalar MyScenario.node[20].appl 	generatedWSMs 	0
scalar MyScenario.node[20].appl 	receivedWSMs 	0
scalar MyScenario.node[20].appl 	generatedBSMs 	30
scalar MyScenario.node[20].appl 	receivedBSMs 	164
scalar MyScenario.node[20].appl 	generatedWSAs 	0
scalar MyScenario.node[20].appl 	receivedWSAs 	0
scalar MyScenario.node[20].nic.phy80211p 	busyTime 	0.00056853333333333
scalar MyScenario.node[20].nic.mac1609_4 	ReceivedUnicastPackets 	0
scalar MyScenario.node[20].nic.mac1609_4 	ReceivedBroadcasts 	164
scalar MyScenario.node[20].nic.mac1609_4 	SentPackets 	30
scalar MyScenario.node[20].nic.mac1609_4 	SNIRLostPackets 	0
scalar MyScenario.node[20].nic.mac1609_4 	RXTXLostPackets 	0
scalar MyScenario.node[20].nic.mac1609_4 	TotalLostPackets 	0
scalar MyScenario.node[20].nic.mac1609_4 	DroppedPacketsInMac 	0
scalar MyScenario.node[20].nic.mac1609_4 	TooLittleTime 	0
scalar MyScenario.node[20].nic.mac1609_4 	TimesIntoBackoff 	30
scalar MyScenario.node[20].nic.mac1609_4 	SlotsBackoff 	44
scalar MyScenario.node[20].nic.mac1609_4 	NumInternalContention 	0
scalar MyScenario.node[20].nic.mac1609_4 	totalBusyTime 	0.020206
scalar MyScenario.node[20].veinsmobility 	startTime 	10845.8
scalar MyScenario.node[20].veinsmobility 	totalTime 	29.9
scalar MyScenario.node[20].veinsmobility 	stopTime 	10875.8
scalar MyScenario.node[20].veinsmobility 	minSpeed 	29.845553626243
scalar MyScenario.node[20].veinsmobility 	maxSpeed 	30.503721418206
scalar MyScenario.node[20].veinsmobility 	totalDistance 	900.09922470165
scalar MyScenario.node[20].veinsmobility 	totalCO2Emission 	165.82027226783
scalar MyScenario.node[23].appl 	generatedWSMs 	0
scalar MyScenario.node[23].appl 	receivedWSMs 	0
scalar MyScenario.node[23].appl 	generatedBSMs 	27
scalar MyScenario.node[23].appl 	receivedBSMs 	172
scalar MyScenario.node[23].appl 	generatedWSAs 	0
scalar MyScenario.node[23].appl 	receivedWSAs 	0
scalar MyScenario.node[23].nic.phy80211p 	busyTime 	0.00066251851851847
scalar MyScenario.node[23].nic.mac1609_4 	ReceivedUnicastPackets 	0
scalar MyScenario.node[23].nic.mac1609_4 	ReceivedBroadcasts 	172
scalar MyScenario.node[23].nic.mac1609_4 	SentPackets 	27
scalar MyScenario.node[23].nic.mac1609_4 	SNIRLostPackets 	0
scalar MyScenario.node[23].nic.mac1609_4 	RXTXLostPackets 	0
scalar MyScenario.node[23].nic.mac1609_4 	TotalLostPackets 	0
scalar MyScenario.node[23].nic.mac1609_4 	DroppedPacketsInMac 	0
scalar MyScenario.node[23].nic.mac1609_4 	TooLittleTime 	0
scalar MyScenario.node[23].nic.mac1609_4 	TimesIntoBackoff 	27
scalar MyScenario.node[23].nic.mac1609_4 	SlotsBackoff 	43
scalar MyScenario.node[23].nic.mac1609_4 	NumInternalContention 	0
scalar MyScenario.node[23].nic.mac1609_4 	totalBusyTime 	0.020723
scalar MyScenario.node[23].veinsmobility 	startTime 	10853.7
scalar MyScenario.node[23].veinsmobility 	totalTime 	26.9
scalar MyScenario.node[23].veinsmobility 	stopTime 	10880.7
scalar MyScenario.node[23].veinsmobility 	minSpeed 	33.470417622335
scalar MyScenario.node[23].veinsmobility 	maxSpeed 	33.607468344101
scalar MyScenario.node[23].veinsmobility 	totalDistance 	903.25412431019
scalar MyScenario.node[23].veinsmobility 	totalCO2Emission 	169.80909686173
scalar MyScenario.node[25].appl 	generatedWSMs 	0
scalar MyScenario.node[25].appl 	receivedWSMs 	0
scalar MyScenario.node[25].appl 	generatedBSMs 	27
scalar MyScenario.node[25].appl 	receivedBSMs 	178
scalar MyScenario.node[25].appl 	generatedWSAs 	0
scalar MyScenario.node[25].appl 	receivedWSAs 	0
scalar MyScenario.node[25].nic.phy80211p 	busyTime 	0.00068817843866171
scalar MyScenario.node[25].nic.mac1609_4 	ReceivedUnicastPackets 	0
scalar MyScenario.node[25].nic.mac1609_4 	ReceivedBroadcasts 	178
scalar MyScenario.node[25].nic.mac1609_4 	SentPackets 	27
scalar MyScenario.node[25].nic.mac1609_4 	SNIRLostPackets 	0
scalar MyScenario.node[25].nic.mac1609_4 	RXTXLostPackets 	0
scalar MyScenario.node[25].nic.mac1609_4 	TotalLostPackets 	0
scalar MyScenario.node[25].nic.mac1609_4 	DroppedPacketsInMac 	0
scalar MyScenario.node[25].nic.mac1609_4 	TooLittleTime 	0
scalar MyScenario.node[25].nic.mac1609_4 	TimesIntoBackoff 	27
scalar MyScenario.node[25].nic.mac1609_4 	SlotsBackoff 	46
scalar MyScenario.node[25].nic.mac1609_4 	NumInternalContention 	0
scalar MyScenario.node[25].nic.mac1609_4 	totalBusyTime 	0.021347
scalar MyScenario.node[25].veinsmobility 	startTime 	10854.9
scalar MyScenario.node[25].veinsmobility 	totalTime 	26.8
scalar MyScenario.node[25].veinsmobility 	stopTime 	10881.8
scalar MyScenario.node[25].veinsmobility 	minSpeed 	33.427123503691
scalar MyScenario.node[25].veinsmobility 	maxSpeed 	33.736134105338
scalar MyScenario.node[25].veinsmobility 	totalDistance 	900.81294464816
scalar MyScenario.node[25].veinsmobility 	totalCO2Emission 	177.15379765048
scalar MyScenario.node[26].appl 	generatedWSMs 	0
scalar MyScenario.node[26].appl 	receivedWSMs 	0
scalar MyScenario.node[26].appl 	generatedBSMs 	23
scalar MyScenario.node[26].appl 	receivedBSMs 	119
scalar MyScenario.node[26].appl 	generatedWSAs 	0
scalar MyScenario.node[26].appl 	receivedWSAs 	0
scalar MyScenario.node[26].nic.phy80211p 	busyTime 	0.00052440677966097
scalar MyScenario.node[26].nic.mac1609_4 	ReceivedUnicastPackets 	0
scalar MyScenario.node[26].nic.mac1609_4 	ReceivedBroadcasts 	119
scalar MyScenario.node[26].nic.mac1609_4 	SentPackets 	23
scalar MyScenario.node[26].nic.mac1609_4 	SNIRLostPackets 	0
scalar MyScenario.node[26].nic.mac1609_4 	RXTXLostPackets 	0
scalar MyScenario.node[26].nic.mac1609_4 	TotalLostPackets 	0
scalar MyScenario.node[26].nic.mac1609_4 	DroppedPacketsInMac 	0
scalar MyScenario.node[26].nic.mac1609_4 	TooLittleTime 	0
scalar MyScenario.node[26].nic.mac1609_4 	TimesIntoBackoff 	23
scalar MyScenario.node[26].nic.mac1609_4 	SlotsBackoff 	34
scalar MyScenario.node[26].nic.mac1609_4 	NumInternalContention 	0
scalar MyScenario.node[26].nic.mac1609_4 	totalBusyTime 	0.014791
scalar MyScenario.node[26].veinsmobility 	startTime 	10859.2
scalar MyScenario.node[26].veinsmobility 	totalTime 	23.5
scalar MyScenario.node[26].veinsmobility 	stopTime 	10882.8
scalar MyScenario.node[26].veinsmobility 	minSpeed 	38.188005194942
scalar MyScenario.node[26].veinsmobility 	maxSpeed 	38.316167607432
scalar MyScenario.node[26].veinsmobility 	totalDistance 	897.81285882311
scalar MyScenario.node[26].veinsmobility 	totalCO2Emission 	190.08947560923
scalar MyScenario.node[24].appl 	generatedWSMs 	0
scalar MyScenario.node[24].appl 	receivedWSMs 	0
scalar MyScenario.node[24].appl 	generatedBSMs 	28
scalar MyScenario.node[24].appl 	receivedBSMs 	184
scalar MyScenario.node[24].appl 	generatedWSAs 	0
scalar MyScenario.node[24].appl 	receivedWSAs 	0
scalar MyScenario.node[24].nic.phy80211p 	busyTime 	0.00066909090909091
scalar MyScenario.node[24].nic.mac1609_4 	ReceivedUnicastPackets 	0
scalar MyScenario.node[24].nic.mac1609_4 	ReceivedBroadcasts 	184
scalar MyScenario.node[24].nic.mac1609_4 	SentPackets 	28
scalar MyScenario.node[24].nic.mac1609_4 	SNIRLostPackets 	0
scalar MyScenario.node[24].nic.mac1609_4 	RXTXLostPackets 	0
scalar MyScenario.node[24].nic.mac1609_4 	TotalLostPackets 	0
scalar MyScenario.node[24].nic.mac1609_4 	DroppedPacketsInMac 	0
scalar MyScenario.node[24].nic.mac1609_4 	TooLittleTime 	0
scalar MyScenario.node[24].nic.mac1609_4 	TimesIntoBackoff 	28
scalar MyScenario.node[24].nic.mac1609_4 	SlotsBackoff 	36
scalar MyScenario.node[24].nic.mac1609_4 	NumInternalContention 	0
scalar MyScenario.node[24].nic.mac1609_4 	totalBusyTime 	0.022076
scalar MyScenario.node[24].veinsmobility 	startTime 	10854.3
scalar MyScenario.node[24].veinsmobility 	totalTime 	28.5
scalar MyScenario.node[24].veinsmobility 	stopTime 	10882.9
scalar MyScenario.node[24].veinsmobility 	minSpeed 	31.563938546634
scalar MyScenario.node[24].veinsmobility 	maxSpeed 	31.711819753295
scalar MyScenario.node[24].veinsmobility 	totalDistance 	900.68529985977
scalar MyScenario.node[24].veinsmobility 	totalCO2Emission 	166.67572516721
scalar MyScenario.node[27].appl 	generatedWSMs 	0
scalar MyScenario.node[27].appl 	receivedWSMs 	0
scalar MyScenario.node[27].appl 	generatedBSMs 	33
scalar MyScenario.node[27].appl 	receivedBSMs 	168
scalar MyScenario.node[27].appl 	generatedWSAs 	0
scalar MyScenario.node[27].appl 	receivedWSAs 	0
scalar MyScenario.node[27].nic.phy80211p 	busyTime 	0.00053759999999997
scalar MyScenario.node[27].nic.mac1609_4 	ReceivedUnicastPackets 	0
scalar MyScenario.node[27].nic.mac1609_4 	ReceivedBroadcasts 	168
scalar MyScenario.node[27].nic.mac1609_4 	SentPackets 	33
scalar MyScenario.node[27].nic.mac1609_4 	SNIRLostPackets 	0
scalar MyScenario.node[27].nic.mac1609_4 	RXTXLostPackets 	0
scalar MyScenario.node[27].nic.mac1609_4 	TotalLostPackets 	0
scalar MyScenario.node[27].nic.mac1609_4 	DroppedPacketsInMac 	0
scalar MyScenario.node[27].nic.mac1609_4 	TooLittleTime 	0
scalar MyScenario.node[27].nic.mac1609_4 	TimesIntoBackoff 	33
scalar MyScenario.node[27].nic.mac1609_4 	SlotsBackoff 	48
scalar MyScenario.node[27].nic.mac1609_4 	NumInternalContention 	0
scalar MyScenario.node[27].nic.mac1609_4 	totalBusyTime 	0.020937
scalar MyScenario.node[27].veinsmobility 	startTime 	10862.2
scalar MyScenario.node[27].veinsmobility 	totalTime 	32.4
scalar MyScenario.node[27].veinsmobility 	stopTime 	10894.7
scalar MyScenario.node[27].veinsmobility 	minSpeed 	27.811896838545
scalar MyScenario.node[27].veinsmobility 	maxSpeed 	27.946835398838
scalar MyScenario.node[27].veinsmobility 	totalDistance 	903.33967488623
scalar MyScenario.node[27].veinsmobility 	totalCO2Emission 	151.46558901665
scalar MyScenario.node[30].appl 	generatedWSMs 	0
scalar MyScenario.node[30].appl 	receivedWSMs 	0
scalar MyScenario.node[30].appl 	generatedBSMs 	22
scalar MyScenario.node[30].appl 	receivedBSMs 	90
scalar MyScenario.node[30].appl 	generatedWSAs 	0
scalar MyScenario.node[30].appl 	receivedWSAs 	0
scalar MyScenario.node[30].nic.phy80211p 	busyTime 	0.00040873362445411
scalar MyScenario.node[30].nic.mac1609_4 	ReceivedUnicastPackets 	0
scalar MyScenario.node[30].nic.mac1609_4 	ReceivedBroadcasts 	90
scalar MyScenario.node[30].nic.mac1609_4 	SentPackets 	22
scalar MyScenario.node[30].nic.mac1609_4 	SNIRLostPackets 	0
scalar MyScenario.node[30].nic.mac1609_4 	RXTXLostPackets 	0
scalar MyScenario.node[30].nic.mac1609_4 	TotalLostPackets 	0
scalar MyScenario.node[30].nic.mac1609_4 	DroppedPacketsInMac 	0
scalar MyScenario.node[30].nic.mac1609_4 	TooLittleTime 	0
scalar MyScenario.node[30].nic.mac1609_4 	TimesIntoBackoff 	22
scalar MyScenario.node[30].nic.mac1609_4 	SlotsBackoff 	24
scalar MyScenario.node[30].nic.mac1609_4 	NumInternalContention 	0
scalar MyScenario.node[30].nic.mac1609_4 	totalBusyTime 	0.01167
scalar MyScenario.node[30].veinsmobility 	startTime 	10873.2
scalar MyScenario.node[30].veinsmobility 	totalTime 	22.8
scalar MyScenario.node[30].veinsmobility 	stopTime 	10896.1
scalar MyScenario.node[30].veinsmobility 	minSpeed 	39.387829189349
scalar MyScenario.node[30].veinsmobility 	maxSpeed 	39.516722158247
scalar MyScenario.node[30].veinsmobility 	totalDistance 	899.48389961352
scalar MyScenario.node[30].veinsmobility 	totalCO2Emission 	197.51112174498
scalar MyScenario.node[28].appl 	generatedWSMs 	0
scalar MyScenario.node[28].appl 	receivedWSMs 	0
scalar MyScenario.node[28].appl 	generatedBSMs 	26
scalar MyScenario.node[28].appl 	receivedBSMs 	106
scalar MyScenario.node[28].appl 	generatedWSAs 	0
scalar MyScenario.node[28].appl 	receivedWSAs 	0
scalar MyScenario.node[28].nic.phy80211p 	busyTime 	0.00042473282442748
scalar MyScenario.node[28].nic.mac1609_4 	ReceivedUnicastPackets 	0
scalar MyScenario.node[28].nic.mac1609_4 	ReceivedBroadcasts 	106
scalar MyScenario.node[28].nic.mac1609_4 	SentPackets 	26
scalar MyScenario.node[28].nic.mac1609_4 	SNIRLostPackets 	1
scalar MyScenario.node[28].nic.mac1609_4 	RXTXLostPackets 	0
scalar MyScenario.node[28].nic.mac1609_4 	TotalLostPackets 	1
scalar MyScenario.node[28].nic.mac1609_4 	DroppedPacketsInMac 	0
scalar MyScenario.node[28].nic.mac1609_4 	TooLittleTime 	0
scalar MyScenario.node[28].nic.mac1609_4 	TimesIntoBackoff 	26
scalar MyScenario.node[28].nic.mac1609_4 	SlotsBackoff 	40
scalar MyScenario.node[28].nic.mac1609_4 	NumInternalContention 	0
scalar MyScenario.node[28].nic.mac1609_4 	totalBusyTime 	0.013858
scalar MyScenario.node[28].veinsmobility 	startTime 	10870
scalar MyScenario.node[28].veinsmobility 	totalTime 	26.1
scalar MyScenario.node[28].veinsmobility 	stopTime 	10896.2
scalar MyScenario.node[28].veinsmobility 	minSpeed 	28.756284003056
scalar MyScenario.node[28].veinsmobility 	maxSpeed 	43.397736680897
scalar MyScenario.node[28].veinsmobility 	totalDistance 	899.26849338047
scalar MyScenario.node[28].veinsmobility 	totalCO2Emission 	72.679948230159
scalar MyScenario.node[31].appl 	generatedWSMs 	0
scalar MyScenario.node[31].appl 	receivedWSMs 	0
scalar MyScenario.node[31].appl 	generatedBSMs 	23
scalar MyScenario.node[31].appl 	receivedBSMs 	4
scalar MyScenario.node[31].appl 	generatedWSAs 	0
scalar MyScenario.node[31].appl 	receivedWSAs 	0
scalar MyScenario.node[31].nic.phy80211p 	busyTime 	1.7854077253219e-05
scalar MyScenario.node[31].nic.mac1609_4 	ReceivedUnicastPackets 	0
scalar MyScenario.node[31].nic.mac1609_4 	ReceivedBroadcasts 	4
scalar MyScenario.node[31].nic.mac1609_4 	SentPackets 	23
scalar MyScenario.node[31].nic.mac1609_4 	SNIRLostPackets 	0
scalar MyScenario.node[31].nic.mac1609_4 	RXTXLostPackets 	0
scalar MyScenario.node[31].nic.mac1609_4 	TotalLostPackets 	0
scalar MyScenario.node[31].nic.mac1609_4 	DroppedPacketsInMac 	0
scalar MyScenario.node[31].nic.mac1609_4 	TooLittleTime 	0
scalar MyScenario.node[31].nic.mac1609_4 	TimesIntoBackoff 	23
scalar MyScenario.node[31].nic.mac1609_4 	SlotsBackoff 	33
scalar MyScenario.node[31].nic.mac1609_4 	NumInternalContention 	0
scalar MyScenario.node[31].nic.mac1609_4 	totalBusyTime 	0.002831
scalar MyScenario.node[31].veinsmobility 	startTime 	10874.3
scalar MyScenario.node[31].veinsmobility 	totalTime 	23.2
scalar MyScenario.node[31].veinsmobility 	stopTime 	10897.6
scalar MyScenario.node[31].veinsmobility 	minSpeed 	3.3732945634605
scalar MyScenario.node[31].veinsmobility 	maxSpeed 	18.233353183002
scalar MyScenario.node[31].veinsmobility 	totalDistance 	317.19285806923
scalar MyScenario.node[31].veinsmobility 	totalCO2Emission 	74.109702689649
scalar MyScenario.node[29].appl 	generatedWSMs 	0
scalar MyScenario.node[29].appl 	receivedWSMs 	0
scalar MyScenario.node[29].appl 	generatedBSMs 	27
scalar MyScenario.node[29].appl 	receivedBSMs 	121
scalar MyScenario.node[29].appl 	generatedWSAs 	0
scalar MyScenario.node[29].appl 	receivedWSAs 	0
scalar MyScenario.node[29].nic.phy80211p 	busyTime 	0.00046780669144981
scalar MyScenario.node[29].nic.mac1609_4 	ReceivedUnicastPackets 	0
scalar MyScenario.node[29].nic.mac1609_4 	ReceivedBroadcasts 	121
scalar MyScenario.node[29].nic.mac1609_4 	SentPackets 	27
scalar MyScenario.node[29].nic.mac1609_4 	SNIRLostPackets 	0
scalar MyScenario.node[29].nic.mac1609_4 	RXTXLostPackets 	0
scalar MyScenario.node[29].nic.mac1609_4 	TotalLostPackets 	0
scalar MyScenario.node[29].nic.mac1609_4 	DroppedPacketsInMac 	0
scalar MyScenario.node[29].nic.mac1609_4 	TooLittleTime 	0
scalar MyScenario.node[29].nic.mac1609_4 	TimesIntoBackoff 	27
scalar MyScenario.node[29].nic.mac1609_4 	SlotsBackoff 	50
scalar MyScenario.node[29].nic.mac1609_4 	NumInternalContention 	0
scalar MyScenario.node[29].nic.mac1609_4 	totalBusyTime 	0.015419
scalar MyScenario.node[29].veinsmobility 	startTime 	10872.9
scalar MyScenario.node[29].veinsmobility 	totalTime 	26.8
scalar MyScenario.node[29].veinsmobility 	stopTime 	10899.8
scalar MyScenario.node[29].veinsmobility 	minSpeed 	33.626655783907
scalar MyScenario.node[29].veinsmobility 	maxSpeed 	33.761470860442
scalar MyScenario.node[29].veinsmobility 	totalDistance 	901.90822703225
scalar MyScenario.node[29].veinsmobility 	totalCO2Emission 	169.5751536867
scalar MyScenario.node[33].appl 	generatedWSMs 	0
scalar MyScenario.node[33].appl 	receivedWSMs 	0
scalar MyScenario.node[33].appl 	generatedBSMs 	15
scalar MyScenario.node[33].appl 	receivedBSMs 	66
scalar MyScenario.node[33].appl 	generatedWSAs 	0
scalar MyScenario.node[33].appl 	receivedWSAs 	0
scalar MyScenario.node[33].nic.phy80211p 	busyTime 	0.0004606711409396
scalar MyScenario.node[33].nic.mac1609_4 	ReceivedUnicastPackets 	0
scalar MyScenario.node[33].nic.mac1609_4 	ReceivedBroadcasts 	66
scalar MyScenario.node[33].nic.mac1609_4 	SentPackets 	15
scalar MyScenario.node[33].nic.mac1609_4 	SNIRLostPackets 	0
scalar MyScenario.node[33].nic.mac1609_4 	RXTXLostPackets 	0
scalar MyScenario.node[33].nic.mac1609_4 	TotalLostPackets 	0
scalar MyScenario.node[33].nic.mac1609_4 	DroppedPacketsInMac 	0
scalar MyScenario.node[33].nic.mac1609_4 	TooLittleTime 	0
scalar MyScenario.node[33].nic.mac1609_4 	TimesIntoBackoff 	15
scalar MyScenario.node[33].nic.mac1609_4 	SlotsBackoff 	21
scalar MyScenario.node[33].nic.mac1609_4 	NumInternalContention 	0
scalar MyScenario.node[33].nic.mac1609_4 	totalBusyTime 	0.008439
scalar MyScenario.node[33].veinsmobility 	startTime 	10885.1
scalar MyScenario.node[33].veinsmobility 	totalTime 	14.9
scalar MyScenario.node[33].veinsmobility 	stopTime 	10900
scalar MyScenario.node[33].veinsmobility 	minSpeed 	36.495735354916
scalar MyScenario.node[33].veinsmobility 	maxSpeed 	36.635398845094
scalar MyScenario.node[33].veinsmobility 	totalDistance 	544.18514953182
scalar MyScenario.node[33].veinsmobility 	totalCO2Emission 	109.58297525803
scalar MyScenario.node[34].appl 	generatedWSMs 	0
scalar MyScenario.node[34].appl 	receivedWSMs 	0
scalar MyScenario.node[34].appl 	generatedBSMs 	14
scalar MyScenario.node[34].appl 	receivedBSMs 	61
scalar MyScenario.node[34].appl 	generatedWSAs 	0
scalar MyScenario.node[34].appl 	receivedWSAs 	0
scalar MyScenario.node[34].nic.phy80211p 	busyTime 	0.00046647058823529
scalar MyScenario.node[34].nic.mac1609_4 	ReceivedUnicastPackets 	0
scalar MyScenario.node[34].nic.mac1609_4 	ReceivedBroadcasts 	61
scalar MyScenario.node[34].nic.mac1609_4 	SentPackets 	14
scalar MyScenario.node[34].nic.mac1609_4 	SNIRLostPackets 	0
scalar MyScenario.node[34].nic.mac1609_4 	RXTXLostPackets 	0
scalar MyScenario.node[34].nic.mac1609_4 	TotalLostPackets 	0
scalar MyScenario.node[34].nic.mac1609_4 	DroppedPacketsInMac 	0
scalar MyScenario.node[34].nic.mac1609_4 	TooLittleTime 	0
scalar MyScenario.node[34].nic.mac1609_4 	TimesIntoBackoff 	14
scalar MyScenario.node[34].nic.mac1609_4 	SlotsBackoff 	18
scalar MyScenario.node[34].nic.mac1609_4 	NumInternalContention 	0
scalar MyScenario.node[34].nic.mac1609_4 	totalBusyTime 	0.007814
scalar MyScenario.node[34].veinsmobility 	startTime 	10886.4
scalar MyScenario.node[34].veinsmobility 	totalTime 	13.6
scalar MyScenario.node[34].veinsmobility 	stopTime 	10900
scalar MyScenario.node[34].veinsmobility 	minSpeed 	36.42700853053
scalar MyScenario.node[34].veinsmobility 	maxSpeed 	36.555748700381
scalar MyScenario.node[34].veinsmobility 	totalDistance 	495.6524554038
scalar MyScenario.node[34].veinsmobility 	totalCO2Emission 	98.628068088339
scalar MyScenario.node[35].appl 	generatedWSMs 	0
scalar MyScenario.node[35].appl 	receivedWSMs 	0
scalar MyScenario.node[35].appl 	generatedBSMs 	7
scalar MyScenario.node[35].appl 	receivedBSMs 	21
scalar MyScenario.node[35].appl 	generatedWSAs 	0
scalar MyScenario.node[35].appl 	receivedWSAs 	0
scalar MyScenario.node[35].nic.phy80211p 	busyTime 	0.00031342465753416
scalar MyScenario.node[35].nic.mac1609_4 	ReceivedUnicastPackets 	0
scalar MyScenario.node[35].nic.mac1609_4 	ReceivedBroadcasts 	21
scalar MyScenario.node[35].nic.mac1609_4 	SentPackets 	7
scalar MyScenario.node[35].nic.mac1609_4 	SNIRLostPackets 	1
scalar MyScenario.node[35].nic.mac1609_4 	RXTXLostPackets 	0
scalar MyScenario.node[35].nic.mac1609_4 	TotalLostPackets 	1
scalar MyScenario.node[35].nic.mac1609_4 	DroppedPacketsInMac 	0
scalar MyScenario.node[35].nic.mac1609_4 	TooLittleTime 	0
scalar MyScenario.node[35].nic.mac1609_4 	TimesIntoBackoff 	7
scalar MyScenario.node[35].nic.mac1609_4 	SlotsBackoff 	9
scalar MyScenario.node[35].nic.mac1609_4 	NumInternalContention 	0
scalar MyScenario.node[35].nic.mac1609_4 	totalBusyTime 	0.003023
scalar MyScenario.node[35].veinsmobility 	startTime 	10892.7
scalar MyScenario.node[35].veinsmobility 	totalTime 	7.3
scalar MyScenario.node[35].veinsmobility 	stopTime 	10900
scalar MyScenario.node[35].veinsmobility 	minSpeed 	31.431521612801
scalar MyScenario.node[35].veinsmobility 	maxSpeed 	31.560644201766
scalar MyScenario.node[35].veinsmobility 	totalDistance 	230.16990214414
scalar MyScenario.node[35].veinsmobility 	totalCO2Emission 	41.990221602264
scalar MyScenario.node[15].appl 	generatedWSMs 	0
scalar MyScenario.node[15].appl 	receivedWSMs 	0
scalar MyScenario.node[15].appl 	generatedBSMs 	79
scalar MyScenario.node[15].appl 	receivedBSMs 	5
scalar MyScenario.node[15].appl 	generatedWSAs 	0
scalar MyScenario.node[15].appl 	receivedWSAs 	0
scalar MyScenario.node[15].nic.phy80211p 	busyTime 	6.5906210392902e-06
scalar MyScenario.node[15].nic.mac1609_4 	ReceivedUnicastPackets 	0
scalar MyScenario.node[15].nic.mac1609_4 	ReceivedBroadcasts 	5
scalar MyScenario.node[15].nic.mac1609_4 	SentPackets 	79
scalar MyScenario.node[15].nic.mac1609_4 	SNIRLostPackets 	0
scalar MyScenario.node[15].nic.mac1609_4 	RXTXLostPackets 	0
scalar MyScenario.node[15].nic.mac1609_4 	TotalLostPackets 	0
scalar MyScenario.node[15].nic.mac1609_4 	DroppedPacketsInMac 	0
scalar MyScenario.node[15].nic.mac1609_4 	TooLittleTime 	0
scalar MyScenario.node[15].nic.mac1609_4 	TimesIntoBackoff 	79
scalar MyScenario.node[15].nic.mac1609_4 	SlotsBackoff 	110
scalar MyScenario.node[15].nic.mac1609_4 	NumInternalContention 	0
scalar MyScenario.node[15].nic.mac1609_4 	totalBusyTime 	0.008815
scalar MyScenario.node[15].veinsmobility 	startTime 	10821.1
scalar MyScenario.node[15].veinsmobility 	totalTime 	78.9
scalar MyScenario.node[15].veinsmobility 	stopTime 	10900
scalar MyScenario.node[15].veinsmobility 	minSpeed 	0
scalar MyScenario.node[15].veinsmobility 	maxSpeed 	14.128755980786
scalar MyScenario.node[15].veinsmobility 	totalDistance 	397.11185093505
scalar MyScenario.node[15].veinsmobility 	totalCO2Emission 	178.25995822549
scalar MyScenario.node[32].appl 	generatedWSMs 	0
scalar MyScenario.node[32].appl 	receivedWSMs 	0
scalar MyScenario.node[32].appl 	generatedBSMs 	16
scalar MyScenario.node[32].appl 	receivedBSMs 	74
scalar MyScenario.node[32].appl 	generatedWSAs 	0
scalar MyScenario.node[32].appl 	receivedWSAs 	0
scalar MyScenario.node[32].nic.phy80211p 	busyTime 	0.00049056603773585
scalar MyScenario.node[32].nic.mac1609_4 	ReceivedUnicastPackets 	0
scalar MyScenario.node[32].nic.mac1609_4 	ReceivedBroadcasts 	74
scalar MyScenario.node[32].nic.mac1609_4 	SentPackets 	16
scalar MyScenario.node[32].nic.mac1609_4 	SNIRLostPackets 	1
scalar MyScenario.node[32].nic.mac1609_4 	RXTXLostPackets 	0
scalar MyScenario.node[32].nic.mac1609_4 	TotalLostPackets 	1
scalar MyScenario.node[32].nic.mac1609_4 	DroppedPacketsInMac 	0
scalar MyScenario.node[32].nic.mac1609_4 	TooLittleTime 	0
scalar MyScenario.node[32].nic.mac1609_4 	TimesIntoBackoff 	16
scalar MyScenario.node[32].nic.mac1609_4 	SlotsBackoff 	20
scalar MyScenario.node[32].nic.mac1609_4 	NumInternalContention 	0
scalar MyScenario.node[32].nic.mac1609_4 	totalBusyTime 	0.00948
scalar MyScenario.node[32].veinsmobility 	startTime 	10884.1
scalar MyScenario.node[32].veinsmobility 	totalTime 	15.9
scalar MyScenario.node[32].veinsmobility 	stopTime 	10900
scalar MyScenario.node[32].veinsmobility 	minSpeed 	27.680702279041
scalar MyScenario.node[32].veinsmobility 	maxSpeed 	32.195753569554
scalar MyScenario.node[32].veinsmobility 	totalDistance 	506.08386102326
scalar MyScenario.node[32].veinsmobility 	totalCO2Emission 	121.82339544828
scalar MyScenario.node[4].appl 	generatedWSMs 	0
scalar MyScenario.node[4].appl 	receivedWSMs 	0
scalar MyScenario.node[4].appl 	generatedBSMs 	100
scalar MyScenario.node[4].appl 	receivedBSMs 	168
scalar MyScenario.node[4].appl 	generatedWSAs 	0
scalar MyScenario.node[4].appl 	receivedWSAs 	0
scalar MyScenario.node[4].nic.phy80211p 	busyTime 	0.00017472
scalar MyScenario.node[4].nic.mac1609_4 	ReceivedUnicastPackets 	0
scalar MyScenario.node[4].nic.mac1609_4 	ReceivedBroadcasts 	168
scalar MyScenario.node[4].nic.mac1609_4 	SentPackets 	100
scalar MyScenario.node[4].nic.mac1609_4 	SNIRLostPackets 	0
scalar MyScenario.node[4].nic.mac1609_4 	RXTXLostPackets 	0
scalar MyScenario.node[4].nic.mac1609_4 	TotalLostPackets 	0
scalar MyScenario.node[4].nic.mac1609_4 	DroppedPacketsInMac 	0
scalar MyScenario.node[4].nic.mac1609_4 	TooLittleTime 	0
scalar MyScenario.node[4].nic.mac1609_4 	TimesIntoBackoff 	100
scalar MyScenario.node[4].nic.mac1609_4 	SlotsBackoff 	188
scalar MyScenario.node[4].nic.mac1609_4 	NumInternalContention 	0
scalar MyScenario.node[4].nic.mac1609_4 	totalBusyTime 	0.027972
scalar MyScenario.node[4].veinsmobility 	startTime 	10800
scalar MyScenario.node[4].veinsmobility 	totalTime 	100
scalar MyScenario.node[4].veinsmobility 	stopTime 	10900
scalar MyScenario.node[4].veinsmobility 	minSpeed 	0
scalar MyScenario.node[4].veinsmobility 	maxSpeed 	16.192136863444
scalar MyScenario.node[4].veinsmobility 	totalDistance 	693.5927967815
scalar MyScenario.node[4].veinsmobility 	totalCO2Emission 	220.34797446797
scalar MyScenario.node[17].appl 	generatedWSMs 	0
scalar MyScenario.node[17].appl 	receivedWSMs 	0
scalar MyScenario.node[17].appl 	generatedBSMs 	68
scalar MyScenario.node[17].appl 	receivedBSMs 	118
scalar MyScenario.node[17].appl 	generatedWSAs 	0
scalar MyScenario.node[17].appl 	receivedWSAs 	0
scalar MyScenario.node[17].nic.phy80211p 	busyTime 	0.00018047058823529
scalar MyScenario.node[17].nic.mac1609_4 	ReceivedUnicastPackets 	0
scalar MyScenario.node[17].nic.mac1609_4 	ReceivedBroadcasts 	118
scalar MyScenario.node[17].nic.mac1609_4 	SentPackets 	68
scalar MyScenario.node[17].nic.mac1609_4 	SNIRLostPackets 	0
scalar MyScenario.node[17].nic.mac1609_4 	RXTXLostPackets 	0
scalar MyScenario.node[17].nic.mac1609_4 	TotalLostPackets 	0
scalar MyScenario.node[17].nic.mac1609_4 	DroppedPacketsInMac 	0
scalar MyScenario.node[17].nic.mac1609_4 	TooLittleTime 	0
scalar MyScenario.node[17].nic.mac1609_4 	TimesIntoBackoff 	68
scalar MyScenario.node[17].nic.mac1609_4 	SlotsBackoff 	87
scalar MyScenario.node[17].nic.mac1609_4 	NumInternalContention 	0
scalar MyScenario.node[17].nic.mac1609_4 	totalBusyTime 	0.019412
scalar MyScenario.node[17].veinsmobility 	startTime 	10832
scalar MyScenario.node[17].veinsmobility 	totalTime 	68
scalar MyScenario.node[17].veinsmobility 	stopTime 	10900
scalar MyScenario.node[17].veinsmobility 	minSpeed 	4.53690220013e-14
scalar MyScenario.node[17].veinsmobility 	maxSpeed 	12.599341017702
scalar MyScenario.node[17].veinsmobility 	totalDistance 	281.53782847178
scalar MyScenario.node[17].veinsmobility 	totalCO2Emission 	114.08656364753
scalar MyScenario.node[6].appl 	generatedWSMs 	0
scalar MyScenario.node[6].appl 	receivedWSMs 	0
scalar MyScenario.node[6].appl 	generatedBSMs 	100
scalar MyScenario.node[6].appl 	receivedBSMs 	173
scalar MyScenario.node[6].appl 	generatedWSAs 	0
scalar MyScenario.node[6].appl 	receivedWSAs 	0
scalar MyScenario.node[6].nic.phy80211p 	busyTime 	0.00017992
scalar MyScenario.node[6].nic.mac1609_4 	ReceivedUnicastPackets 	0
scalar MyScenario.node[6].nic.mac1609_4 	ReceivedBroadcasts 	173
scalar MyScenario.node[6].nic.mac1609_4 	SentPackets 	100
scalar MyScenario.node[6].nic.mac1609_4 	SNIRLostPackets 	0
scalar MyScenario.node[6].nic.mac1609_4 	RXTXLostPackets 	0
scalar MyScenario.node[6].nic.mac1609_4 	TotalLostPackets 	0
scalar MyScenario.node[6].nic.mac1609_4 	DroppedPacketsInMac 	0
scalar MyScenario.node[6].nic.mac1609_4 	TooLittleTime 	0
scalar MyScenario.node[6].nic.mac1609_4 	TimesIntoBackoff 	100
scalar MyScenario.node[6].nic.mac1609_4 	SlotsBackoff 	164
scalar MyScenario.node[6].nic.mac1609_4 	NumInternalContention 	0
scalar MyScenario.node[6].nic.mac1609_4 	totalBusyTime 	0.028492
scalar MyScenario.node[6].veinsmobility 	startTime 	10800
scalar MyScenario.node[6].veinsmobility 	totalTime 	100
scalar MyScenario.node[6].veinsmobility 	stopTime 	10900
scalar MyScenario.node[6].veinsmobility 	minSpeed 	0
scalar MyScenario.node[6].veinsmobility 	maxSpeed 	13.759905999454
scalar MyScenario.node[6].veinsmobility 	totalDistance 	703.45941120347
scalar MyScenario.node[6].veinsmobility 	totalCO2Emission 	214.81776495225
