version 2
run AttackerType2-35-20180205-17:08:51-99255
attr configname AttackerType2
attr datetime 20180205-17:08:51
attr experiment AttackerType2
attr inifile omnetpp_35.ini
attr iterationvars "$start=7, $0=0.2"
attr iterationvarsf start=7,0.2-
attr measurement "$start=7, $0=0.2"
attr network MyScenario
attr processid 99255
attr repetition 0
attr replication #0
attr resultdir results
attr runnumber 35
attr seedset 0
attr start 7
param **.**.**.debug false
param **.**.nic.**.debug false
param **.coreDebug false
param **.debug false
param *.**.nic.mac1609_4.bitrate 6Mbps
param *.**.nic.mac1609_4.txPower 20mW
param *.**.nic.mac1609_4.useServiceChannel false
param *.**.nic.phy80211p.analogueModels "xmldoc(\"config.xml\")"
param *.**.nic.phy80211p.antenna "xmldoc(\"antenna.xml\", \"/root/Antenna[@id='monopole']\")"
param *.**.nic.phy80211p.decider "xmldoc(\"config.xml\")"
param *.**.nic.phy80211p.sensitivity -89dBm
param *.**.nic.phy80211p.thermalNoise -110dBm
param *.**.nic.phy80211p.usePropagationDelay true
param *.**.nic.phy80211p.useThermalNoise true
param *.**.veinsmobility.x 0
param *.**.veinsmobility.y 0
param *.**.veinsmobility.z 1.895
param *.**.veinsmobilityType.debug false
param *.annotations.draw false
param *.connectionManager.drawMaxIntfDist false
param *.connectionManager.maxInterfDist 2600m
param *.connectionManager.sendDirect true
param *.manager.autoShutdown true
param *.manager.configFile "\"dua.static.sumocfg\""
param *.manager.firstStepAt 7h
param *.manager.host "\"localhost\""
param *.manager.launchConfig "xmldoc(\"luxembourg.launchd.xml\")"
param *.manager.roiRects "\"2300,5400-6300,6300\""
param *.manager.seed 0
param *.manager.updateInterval 0.1s
param *.node[*].appl.attackerProbability 0.2
param *.node[*].appl.attackerType 2
param *.node[*].appl.attackerXOffset 250
param *.node[*].appl.attackerYOffset -150
param *.node[*].appl.beaconInterval 1s
param *.node[*].appl.dataOnSch false
param *.node[*].appl.headerLength "80 bit"
param *.node[*].appl.sendBeacons true
param *.node[*].appl.traceGroundTruthJSONFile "\"GroundTruthJSONlog\""
param *.node[*].appl.traceJSONFile "\"JSONlog-\""
param *.node[*].applType "\"AttackerApp\""
param *.obstacles.debug false
param *.obstacles.obstacles "xmldoc(\"config.xml\", \"//AnalogueModel[@type='SimpleObstacleShadowing']/obstacles\")"
param *.playgroundSizeX 13640m
param *.playgroundSizeY 11500m
param *.playgroundSizeZ 50m

scalar _runattrs_ 	start 	7
scalar MyScenario.node[74].appl 	generatedWSMs 	0
scalar MyScenario.node[74].appl 	receivedWSMs 	0
scalar MyScenario.node[74].appl 	generatedBSMs 	0
scalar MyScenario.node[74].appl 	receivedBSMs 	1
scalar MyScenario.node[74].appl 	generatedWSAs 	0
scalar MyScenario.node[74].appl 	receivedWSAs 	0
scalar MyScenario.node[74].nic.phy80211p 	busyTime 	0.00052
scalar MyScenario.node[74].nic.mac1609_4 	ReceivedUnicastPackets 	0
scalar MyScenario.node[74].nic.mac1609_4 	ReceivedBroadcasts 	1
scalar MyScenario.node[74].nic.mac1609_4 	SentPackets 	0
scalar MyScenario.node[74].nic.mac1609_4 	SNIRLostPackets 	0
scalar MyScenario.node[74].nic.mac1609_4 	RXTXLostPackets 	0
scalar MyScenario.node[74].nic.mac1609_4 	TotalLostPackets 	0
scalar MyScenario.node[74].nic.mac1609_4 	DroppedPacketsInMac 	0
scalar MyScenario.node[74].nic.mac1609_4 	TooLittleTime 	0
scalar MyScenario.node[74].nic.mac1609_4 	TimesIntoBackoff 	0
scalar MyScenario.node[74].nic.mac1609_4 	SlotsBackoff 	0
scalar MyScenario.node[74].nic.mac1609_4 	NumInternalContention 	0
scalar MyScenario.node[74].nic.mac1609_4 	totalBusyTime 	0.000104
scalar MyScenario.node[74].veinsmobility 	startTime 	25200
scalar MyScenario.node[74].veinsmobility 	totalTime 	0.1
scalar MyScenario.node[74].veinsmobility 	stopTime 	25200.2
scalar MyScenario.node[74].veinsmobility 	minSpeed 	10.660873339057
scalar MyScenario.node[74].veinsmobility 	maxSpeed 	10.660873339057
scalar MyScenario.node[74].veinsmobility 	totalDistance 	1.0671495364519
scalar MyScenario.node[74].veinsmobility 	totalCO2Emission 	0
scalar MyScenario.node[56].appl 	generatedWSMs 	0
scalar MyScenario.node[56].appl 	receivedWSMs 	0
scalar MyScenario.node[56].appl 	generatedBSMs 	1
scalar MyScenario.node[56].appl 	receivedBSMs 	24
scalar MyScenario.node[56].appl 	generatedWSAs 	0
scalar MyScenario.node[56].appl 	receivedWSAs 	0
scalar MyScenario.node[56].nic.phy80211p 	busyTime 	0.00312
scalar MyScenario.node[56].nic.mac1609_4 	ReceivedUnicastPackets 	0
scalar MyScenario.node[56].nic.mac1609_4 	ReceivedBroadcasts 	24
scalar MyScenario.node[56].nic.mac1609_4 	SentPackets 	1
scalar MyScenario.node[56].nic.mac1609_4 	SNIRLostPackets 	0
scalar MyScenario.node[56].nic.mac1609_4 	RXTXLostPackets 	0
scalar MyScenario.node[56].nic.mac1609_4 	TotalLostPackets 	0
scalar MyScenario.node[56].nic.mac1609_4 	DroppedPacketsInMac 	0
scalar MyScenario.node[56].nic.mac1609_4 	TooLittleTime 	0
scalar MyScenario.node[56].nic.mac1609_4 	TimesIntoBackoff 	1
scalar MyScenario.node[56].nic.mac1609_4 	SlotsBackoff 	3
scalar MyScenario.node[56].nic.mac1609_4 	NumInternalContention 	0
scalar MyScenario.node[56].nic.mac1609_4 	totalBusyTime 	0.002601
scalar MyScenario.node[56].veinsmobility 	startTime 	25200
scalar MyScenario.node[56].veinsmobility 	totalTime 	0.7
scalar MyScenario.node[56].veinsmobility 	stopTime 	25200.8
scalar MyScenario.node[56].veinsmobility 	minSpeed 	33.15269600362
scalar MyScenario.node[56].veinsmobility 	maxSpeed 	34.141071480577
scalar MyScenario.node[56].veinsmobility 	totalDistance 	23.618198507222
scalar MyScenario.node[56].veinsmobility 	totalCO2Emission 	11.774081987802
scalar MyScenario.node[3].appl 	generatedWSMs 	0
scalar MyScenario.node[3].appl 	receivedWSMs 	0
scalar MyScenario.node[3].appl 	generatedBSMs 	1
scalar MyScenario.node[3].appl 	receivedBSMs 	28
scalar MyScenario.node[3].appl 	generatedWSAs 	0
scalar MyScenario.node[3].appl 	receivedWSAs 	0
scalar MyScenario.node[3].nic.phy80211p 	busyTime 	0.0026472727272727
scalar MyScenario.node[3].nic.mac1609_4 	ReceivedUnicastPackets 	0
scalar MyScenario.node[3].nic.mac1609_4 	ReceivedBroadcasts 	28
scalar MyScenario.node[3].nic.mac1609_4 	SentPackets 	1
scalar MyScenario.node[3].nic.mac1609_4 	SNIRLostPackets 	0
scalar MyScenario.node[3].nic.mac1609_4 	RXTXLostPackets 	0
scalar MyScenario.node[3].nic.mac1609_4 	TotalLostPackets 	0
scalar MyScenario.node[3].nic.mac1609_4 	DroppedPacketsInMac 	0
scalar MyScenario.node[3].nic.mac1609_4 	TooLittleTime 	0
scalar MyScenario.node[3].nic.mac1609_4 	TimesIntoBackoff 	1
scalar MyScenario.node[3].nic.mac1609_4 	SlotsBackoff 	2
scalar MyScenario.node[3].nic.mac1609_4 	NumInternalContention 	0
scalar MyScenario.node[3].nic.mac1609_4 	totalBusyTime 	0.003017
scalar MyScenario.node[3].veinsmobility 	startTime 	25200
scalar MyScenario.node[3].veinsmobility 	totalTime 	1
scalar MyScenario.node[3].veinsmobility 	stopTime 	25201.1
scalar MyScenario.node[3].veinsmobility 	minSpeed 	35.837856105716
scalar MyScenario.node[3].veinsmobility 	maxSpeed 	36.192399388838
scalar MyScenario.node[3].veinsmobility 	totalDistance 	35.995222722553
scalar MyScenario.node[3].veinsmobility 	totalCO2Emission 	4.9989791146223
scalar MyScenario.node[12].appl 	generatedWSMs 	0
scalar MyScenario.node[12].appl 	receivedWSMs 	0
scalar MyScenario.node[12].appl 	generatedBSMs 	1
scalar MyScenario.node[12].appl 	receivedBSMs 	37
scalar MyScenario.node[12].appl 	generatedWSAs 	0
scalar MyScenario.node[12].appl 	receivedWSAs 	0
scalar MyScenario.node[12].nic.phy80211p 	busyTime 	0.00296
scalar MyScenario.node[12].nic.mac1609_4 	ReceivedUnicastPackets 	0
scalar MyScenario.node[12].nic.mac1609_4 	ReceivedBroadcasts 	37
scalar MyScenario.node[12].nic.mac1609_4 	SentPackets 	1
scalar MyScenario.node[12].nic.mac1609_4 	SNIRLostPackets 	0
scalar MyScenario.node[12].nic.mac1609_4 	RXTXLostPackets 	0
scalar MyScenario.node[12].nic.mac1609_4 	TotalLostPackets 	0
scalar MyScenario.node[12].nic.mac1609_4 	DroppedPacketsInMac 	0
scalar MyScenario.node[12].nic.mac1609_4 	TooLittleTime 	0
scalar MyScenario.node[12].nic.mac1609_4 	TimesIntoBackoff 	1
scalar MyScenario.node[12].nic.mac1609_4 	SlotsBackoff 	2
scalar MyScenario.node[12].nic.mac1609_4 	NumInternalContention 	0
scalar MyScenario.node[12].nic.mac1609_4 	totalBusyTime 	0.003953
scalar MyScenario.node[12].veinsmobility 	startTime 	25200
scalar MyScenario.node[12].veinsmobility 	totalTime 	1.2
scalar MyScenario.node[12].veinsmobility 	stopTime 	25201.3
scalar MyScenario.node[12].veinsmobility 	minSpeed 	29.898984805495
scalar MyScenario.node[12].veinsmobility 	maxSpeed 	29.997530270806
scalar MyScenario.node[12].veinsmobility 	totalDistance 	35.975477900498
scalar MyScenario.node[12].veinsmobility 	totalCO2Emission 	4.9419662022115
scalar MyScenario.node[143].appl 	generatedWSMs 	0
scalar MyScenario.node[143].appl 	receivedWSMs 	0
scalar MyScenario.node[143].appl 	generatedBSMs 	2
scalar MyScenario.node[143].appl 	receivedBSMs 	45
scalar MyScenario.node[143].appl 	generatedWSAs 	0
scalar MyScenario.node[143].appl 	receivedWSAs 	0
scalar MyScenario.node[143].nic.phy80211p 	busyTime 	0.0033428571428571
scalar MyScenario.node[143].nic.mac1609_4 	ReceivedUnicastPackets 	0
scalar MyScenario.node[143].nic.mac1609_4 	ReceivedBroadcasts 	45
scalar MyScenario.node[143].nic.mac1609_4 	SentPackets 	2
scalar MyScenario.node[143].nic.mac1609_4 	SNIRLostPackets 	0
scalar MyScenario.node[143].nic.mac1609_4 	RXTXLostPackets 	0
scalar MyScenario.node[143].nic.mac1609_4 	TotalLostPackets 	0
scalar MyScenario.node[143].nic.mac1609_4 	DroppedPacketsInMac 	0
scalar MyScenario.node[143].nic.mac1609_4 	TooLittleTime 	0
scalar MyScenario.node[143].nic.mac1609_4 	TimesIntoBackoff 	2
scalar MyScenario.node[143].nic.mac1609_4 	SlotsBackoff 	4
scalar MyScenario.node[143].nic.mac1609_4 	NumInternalContention 	0
scalar MyScenario.node[143].nic.mac1609_4 	totalBusyTime 	0.00489
scalar MyScenario.node[143].veinsmobility 	startTime 	25200
scalar MyScenario.node[143].veinsmobility 	totalTime 	1.3
scalar MyScenario.node[143].veinsmobility 	stopTime 	25201.4
scalar MyScenario.node[143].veinsmobility 	minSpeed 	9.4553127443156
scalar MyScenario.node[143].veinsmobility 	maxSpeed 	12.806116719718
scalar MyScenario.node[143].veinsmobility 	totalDistance 	14.458952969558
scalar MyScenario.node[143].veinsmobility 	totalCO2Emission 	1.1676
scalar MyScenario.node[187].appl 	generatedWSMs 	0
scalar MyScenario.node[187].appl 	receivedWSMs 	0
scalar MyScenario.node[187].appl 	generatedBSMs 	2
scalar MyScenario.node[187].appl 	receivedBSMs 	12
scalar MyScenario.node[187].appl 	generatedWSAs 	0
scalar MyScenario.node[187].appl 	receivedWSAs 	0
scalar MyScenario.node[187].nic.phy80211p 	busyTime 	0.00089142857142857
scalar MyScenario.node[187].nic.mac1609_4 	ReceivedUnicastPackets 	0
scalar MyScenario.node[187].nic.mac1609_4 	ReceivedBroadcasts 	12
scalar MyScenario.node[187].nic.mac1609_4 	SentPackets 	2
scalar MyScenario.node[187].nic.mac1609_4 	SNIRLostPackets 	0
scalar MyScenario.node[187].nic.mac1609_4 	RXTXLostPackets 	0
scalar MyScenario.node[187].nic.mac1609_4 	TotalLostPackets 	0
scalar MyScenario.node[187].nic.mac1609_4 	DroppedPacketsInMac 	0
scalar MyScenario.node[187].nic.mac1609_4 	TooLittleTime 	0
scalar MyScenario.node[187].nic.mac1609_4 	TimesIntoBackoff 	2
scalar MyScenario.node[187].nic.mac1609_4 	SlotsBackoff 	2
scalar MyScenario.node[187].nic.mac1609_4 	NumInternalContention 	0
scalar MyScenario.node[187].nic.mac1609_4 	totalBusyTime 	0.001458
scalar MyScenario.node[187].veinsmobility 	startTime 	25200
scalar MyScenario.node[187].veinsmobility 	totalTime 	1.3
scalar MyScenario.node[187].veinsmobility 	stopTime 	25201.4
scalar MyScenario.node[187].veinsmobility 	minSpeed 	36.661586565519
scalar MyScenario.node[187].veinsmobility 	maxSpeed 	36.786178177078
scalar MyScenario.node[187].veinsmobility 	totalDistance 	47.87108905643
scalar MyScenario.node[187].veinsmobility 	totalCO2Emission 	8.7302582889971
scalar MyScenario.node[4].appl 	generatedWSMs 	0
scalar MyScenario.node[4].appl 	receivedWSMs 	0
scalar MyScenario.node[4].appl 	generatedBSMs 	2
scalar MyScenario.node[4].appl 	receivedBSMs 	54
scalar MyScenario.node[4].appl 	generatedWSAs 	0
scalar MyScenario.node[4].appl 	receivedWSAs 	0
scalar MyScenario.node[4].nic.phy80211p 	busyTime 	0.0029557894736842
scalar MyScenario.node[4].nic.mac1609_4 	ReceivedUnicastPackets 	0
scalar MyScenario.node[4].nic.mac1609_4 	ReceivedBroadcasts 	54
scalar MyScenario.node[4].nic.mac1609_4 	SentPackets 	2
scalar MyScenario.node[4].nic.mac1609_4 	SNIRLostPackets 	0
scalar MyScenario.node[4].nic.mac1609_4 	RXTXLostPackets 	0
scalar MyScenario.node[4].nic.mac1609_4 	TotalLostPackets 	0
scalar MyScenario.node[4].nic.mac1609_4 	DroppedPacketsInMac 	0
scalar MyScenario.node[4].nic.mac1609_4 	TooLittleTime 	0
scalar MyScenario.node[4].nic.mac1609_4 	TimesIntoBackoff 	2
scalar MyScenario.node[4].nic.mac1609_4 	SlotsBackoff 	2
scalar MyScenario.node[4].nic.mac1609_4 	NumInternalContention 	0
scalar MyScenario.node[4].nic.mac1609_4 	totalBusyTime 	0.005826
scalar MyScenario.node[4].veinsmobility 	startTime 	25200
scalar MyScenario.node[4].veinsmobility 	totalTime 	1.8
scalar MyScenario.node[4].veinsmobility 	stopTime 	25201.9
scalar MyScenario.node[4].veinsmobility 	minSpeed 	36.733826332683
scalar MyScenario.node[4].veinsmobility 	maxSpeed 	36.864554501771
scalar MyScenario.node[4].veinsmobility 	totalDistance 	66.324443322013
scalar MyScenario.node[4].veinsmobility 	totalCO2Emission 	12.050742780492
scalar MyScenario.node[9].appl 	generatedWSMs 	0
scalar MyScenario.node[9].appl 	receivedWSMs 	0
scalar MyScenario.node[9].appl 	generatedBSMs 	2
scalar MyScenario.node[9].appl 	receivedBSMs 	67
scalar MyScenario.node[9].appl 	generatedWSAs 	0
scalar MyScenario.node[9].appl 	receivedWSAs 	0
scalar MyScenario.node[9].nic.phy80211p 	busyTime 	0.0029033333333333
scalar MyScenario.node[9].nic.mac1609_4 	ReceivedUnicastPackets 	0
scalar MyScenario.node[9].nic.mac1609_4 	ReceivedBroadcasts 	67
scalar MyScenario.node[9].nic.mac1609_4 	SentPackets 	2
scalar MyScenario.node[9].nic.mac1609_4 	SNIRLostPackets 	0
scalar MyScenario.node[9].nic.mac1609_4 	RXTXLostPackets 	0
scalar MyScenario.node[9].nic.mac1609_4 	TotalLostPackets 	0
scalar MyScenario.node[9].nic.mac1609_4 	DroppedPacketsInMac 	0
scalar MyScenario.node[9].nic.mac1609_4 	TooLittleTime 	0
scalar MyScenario.node[9].nic.mac1609_4 	TimesIntoBackoff 	2
scalar MyScenario.node[9].nic.mac1609_4 	SlotsBackoff 	2
scalar MyScenario.node[9].nic.mac1609_4 	NumInternalContention 	0
scalar MyScenario.node[9].nic.mac1609_4 	totalBusyTime 	0.007178
scalar MyScenario.node[9].veinsmobility 	startTime 	25200
scalar MyScenario.node[9].veinsmobility 	totalTime 	2.3
scalar MyScenario.node[9].veinsmobility 	stopTime 	25202.4
scalar MyScenario.node[9].veinsmobility 	minSpeed 	29.881584197721
scalar MyScenario.node[9].veinsmobility 	maxSpeed 	29.99830546855
scalar MyScenario.node[9].veinsmobility 	totalDistance 	68.787831543296
scalar MyScenario.node[9].veinsmobility 	totalCO2Emission 	11.137770075651
scalar MyScenario.node[15].appl 	generatedWSMs 	0
scalar MyScenario.node[15].appl 	receivedWSMs 	0
scalar MyScenario.node[15].appl 	generatedBSMs 	3
scalar MyScenario.node[15].appl 	receivedBSMs 	80
scalar MyScenario.node[15].appl 	generatedWSAs 	0
scalar MyScenario.node[15].appl 	receivedWSAs 	0
scalar MyScenario.node[15].nic.phy80211p 	busyTime 	0.0032
scalar MyScenario.node[15].nic.mac1609_4 	ReceivedUnicastPackets 	0
scalar MyScenario.node[15].nic.mac1609_4 	ReceivedBroadcasts 	80
scalar MyScenario.node[15].nic.mac1609_4 	SentPackets 	3
scalar MyScenario.node[15].nic.mac1609_4 	SNIRLostPackets 	0
scalar MyScenario.node[15].nic.mac1609_4 	RXTXLostPackets 	0
scalar MyScenario.node[15].nic.mac1609_4 	TotalLostPackets 	0
scalar MyScenario.node[15].nic.mac1609_4 	DroppedPacketsInMac 	0
scalar MyScenario.node[15].nic.mac1609_4 	TooLittleTime 	0
scalar MyScenario.node[15].nic.mac1609_4 	TimesIntoBackoff 	3
scalar MyScenario.node[15].nic.mac1609_4 	SlotsBackoff 	3
scalar MyScenario.node[15].nic.mac1609_4 	NumInternalContention 	0
scalar MyScenario.node[15].nic.mac1609_4 	totalBusyTime 	0.008635
scalar MyScenario.node[15].veinsmobility 	startTime 	25200
scalar MyScenario.node[15].veinsmobility 	totalTime 	2.5
scalar MyScenario.node[15].veinsmobility 	stopTime 	25202.6
scalar MyScenario.node[15].veinsmobility 	minSpeed 	29.859580930161
scalar MyScenario.node[15].veinsmobility 	maxSpeed 	30.035825151517
scalar MyScenario.node[15].veinsmobility 	totalDistance 	74.930921121148
scalar MyScenario.node[15].veinsmobility 	totalCO2Emission 	12.335381966378
scalar MyScenario.node[118].appl 	generatedWSMs 	0
scalar MyScenario.node[118].appl 	receivedWSMs 	0
scalar MyScenario.node[118].appl 	generatedBSMs 	3
scalar MyScenario.node[118].appl 	receivedBSMs 	11
scalar MyScenario.node[118].appl 	generatedWSAs 	0
scalar MyScenario.node[118].appl 	receivedWSAs 	0
scalar MyScenario.node[118].nic.phy80211p 	busyTime 	0.0004237037037037
scalar MyScenario.node[118].nic.mac1609_4 	ReceivedUnicastPackets 	0
scalar MyScenario.node[118].nic.mac1609_4 	ReceivedBroadcasts 	11
scalar MyScenario.node[118].nic.mac1609_4 	SentPackets 	3
scalar MyScenario.node[118].nic.mac1609_4 	SNIRLostPackets 	0
scalar MyScenario.node[118].nic.mac1609_4 	RXTXLostPackets 	0
scalar MyScenario.node[118].nic.mac1609_4 	TotalLostPackets 	0
scalar MyScenario.node[118].nic.mac1609_4 	DroppedPacketsInMac 	0
scalar MyScenario.node[118].nic.mac1609_4 	TooLittleTime 	0
scalar MyScenario.node[118].nic.mac1609_4 	TimesIntoBackoff 	3
scalar MyScenario.node[118].nic.mac1609_4 	SlotsBackoff 	4
scalar MyScenario.node[118].nic.mac1609_4 	NumInternalContention 	0
scalar MyScenario.node[118].nic.mac1609_4 	totalBusyTime 	0.001459
scalar MyScenario.node[118].veinsmobility 	startTime 	25200
scalar MyScenario.node[118].veinsmobility 	totalTime 	2.6
scalar MyScenario.node[118].veinsmobility 	stopTime 	25202.7
scalar MyScenario.node[118].veinsmobility 	minSpeed 	6.4931052517836
scalar MyScenario.node[118].veinsmobility 	maxSpeed 	11.597634173195
scalar MyScenario.node[118].veinsmobility 	totalDistance 	25.998691466638
scalar MyScenario.node[118].veinsmobility 	totalCO2Emission 	15.331461180675
scalar MyScenario.node[72].appl 	generatedWSMs 	0
scalar MyScenario.node[72].appl 	receivedWSMs 	0
scalar MyScenario.node[72].appl 	generatedBSMs 	3
scalar MyScenario.node[72].appl 	receivedBSMs 	91
scalar MyScenario.node[72].appl 	generatedWSAs 	0
scalar MyScenario.node[72].appl 	receivedWSAs 	0
scalar MyScenario.node[72].nic.phy80211p 	busyTime 	0.0027835294117647
scalar MyScenario.node[72].nic.mac1609_4 	ReceivedUnicastPackets 	0
scalar MyScenario.node[72].nic.mac1609_4 	ReceivedBroadcasts 	91
scalar MyScenario.node[72].nic.mac1609_4 	SentPackets 	3
scalar MyScenario.node[72].nic.mac1609_4 	SNIRLostPackets 	0
scalar MyScenario.node[72].nic.mac1609_4 	RXTXLostPackets 	0
scalar MyScenario.node[72].nic.mac1609_4 	TotalLostPackets 	0
scalar MyScenario.node[72].nic.mac1609_4 	DroppedPacketsInMac 	0
scalar MyScenario.node[72].nic.mac1609_4 	TooLittleTime 	0
scalar MyScenario.node[72].nic.mac1609_4 	TimesIntoBackoff 	3
scalar MyScenario.node[72].nic.mac1609_4 	SlotsBackoff 	3
scalar MyScenario.node[72].nic.mac1609_4 	NumInternalContention 	0
scalar MyScenario.node[72].nic.mac1609_4 	totalBusyTime 	0.009779
scalar MyScenario.node[72].veinsmobility 	startTime 	25200
scalar MyScenario.node[72].veinsmobility 	totalTime 	3.3
scalar MyScenario.node[72].veinsmobility 	stopTime 	25203.4
scalar MyScenario.node[72].veinsmobility 	minSpeed 	37.017587925961
scalar MyScenario.node[72].veinsmobility 	maxSpeed 	37.136346160038
scalar MyScenario.node[72].veinsmobility 	totalDistance 	122.36144380524
scalar MyScenario.node[72].veinsmobility 	totalCO2Emission 	24.213178431037
scalar MyScenario.node[86].appl 	generatedWSMs 	0
scalar MyScenario.node[86].appl 	receivedWSMs 	0
scalar MyScenario.node[86].appl 	generatedBSMs 	3
scalar MyScenario.node[86].appl 	receivedBSMs 	100
scalar MyScenario.node[86].appl 	generatedWSAs 	0
scalar MyScenario.node[86].appl 	receivedWSAs 	0
scalar MyScenario.node[86].nic.phy80211p 	busyTime 	0.0030011428571429
scalar MyScenario.node[86].nic.mac1609_4 	ReceivedUnicastPackets 	0
scalar MyScenario.node[86].nic.mac1609_4 	ReceivedBroadcasts 	100
scalar MyScenario.node[86].nic.mac1609_4 	SentPackets 	3
scalar MyScenario.node[86].nic.mac1609_4 	SNIRLostPackets 	1
scalar MyScenario.node[86].nic.mac1609_4 	RXTXLostPackets 	0
scalar MyScenario.node[86].nic.mac1609_4 	TotalLostPackets 	1
scalar MyScenario.node[86].nic.mac1609_4 	DroppedPacketsInMac 	0
scalar MyScenario.node[86].nic.mac1609_4 	TooLittleTime 	0
scalar MyScenario.node[86].nic.mac1609_4 	TimesIntoBackoff 	3
scalar MyScenario.node[86].nic.mac1609_4 	SlotsBackoff 	5
scalar MyScenario.node[86].nic.mac1609_4 	NumInternalContention 	0
scalar MyScenario.node[86].nic.mac1609_4 	totalBusyTime 	0.010819
scalar MyScenario.node[86].veinsmobility 	startTime 	25200
scalar MyScenario.node[86].veinsmobility 	totalTime 	3.4
scalar MyScenario.node[86].veinsmobility 	stopTime 	25203.5
scalar MyScenario.node[86].veinsmobility 	minSpeed 	32.736588955277
scalar MyScenario.node[86].veinsmobility 	maxSpeed 	38.876586474862
scalar MyScenario.node[86].veinsmobility 	totalDistance 	126.8692555185
scalar MyScenario.node[86].veinsmobility 	totalCO2Emission 	15.373214965767
scalar MyScenario.node[10].appl 	generatedWSMs 	0
scalar MyScenario.node[10].appl 	receivedWSMs 	0
scalar MyScenario.node[10].appl 	generatedBSMs 	4
scalar MyScenario.node[10].appl 	receivedBSMs 	96
scalar MyScenario.node[10].appl 	generatedWSAs 	0
scalar MyScenario.node[10].appl 	receivedWSAs 	0
scalar MyScenario.node[10].nic.phy80211p 	busyTime 	0.0027733333333333
scalar MyScenario.node[10].nic.mac1609_4 	ReceivedUnicastPackets 	0
scalar MyScenario.node[10].nic.mac1609_4 	ReceivedBroadcasts 	96
scalar MyScenario.node[10].nic.mac1609_4 	SentPackets 	4
scalar MyScenario.node[10].nic.mac1609_4 	SNIRLostPackets 	0
scalar MyScenario.node[10].nic.mac1609_4 	RXTXLostPackets 	0
scalar MyScenario.node[10].nic.mac1609_4 	TotalLostPackets 	0
scalar MyScenario.node[10].nic.mac1609_4 	DroppedPacketsInMac 	0
scalar MyScenario.node[10].nic.mac1609_4 	TooLittleTime 	0
scalar MyScenario.node[10].nic.mac1609_4 	TimesIntoBackoff 	4
scalar MyScenario.node[10].nic.mac1609_4 	SlotsBackoff 	5
scalar MyScenario.node[10].nic.mac1609_4 	NumInternalContention 	0
scalar MyScenario.node[10].nic.mac1609_4 	totalBusyTime 	0.010404
scalar MyScenario.node[10].veinsmobility 	startTime 	25200
scalar MyScenario.node[10].veinsmobility 	totalTime 	3.5
scalar MyScenario.node[10].veinsmobility 	stopTime 	25203.6
scalar MyScenario.node[10].veinsmobility 	minSpeed 	29.865027423734
scalar MyScenario.node[10].veinsmobility 	maxSpeed 	30.033617682619
scalar MyScenario.node[10].veinsmobility 	totalDistance 	104.69443404874
scalar MyScenario.node[10].veinsmobility 	totalCO2Emission 	18.547014373092
scalar MyScenario.node[113].appl 	generatedWSMs 	0
scalar MyScenario.node[113].appl 	receivedWSMs 	0
scalar MyScenario.node[113].appl 	generatedBSMs 	4
scalar MyScenario.node[113].appl 	receivedBSMs 	135
scalar MyScenario.node[113].appl 	generatedWSAs 	0
scalar MyScenario.node[113].appl 	receivedWSAs 	0
scalar MyScenario.node[113].nic.phy80211p 	busyTime 	0.0036947368421053
scalar MyScenario.node[113].nic.mac1609_4 	ReceivedUnicastPackets 	0
scalar MyScenario.node[113].nic.mac1609_4 	ReceivedBroadcasts 	135
scalar MyScenario.node[113].nic.mac1609_4 	SentPackets 	4
scalar MyScenario.node[113].nic.mac1609_4 	SNIRLostPackets 	0
scalar MyScenario.node[113].nic.mac1609_4 	RXTXLostPackets 	0
scalar MyScenario.node[113].nic.mac1609_4 	TotalLostPackets 	0
scalar MyScenario.node[113].nic.mac1609_4 	DroppedPacketsInMac 	0
scalar MyScenario.node[113].nic.mac1609_4 	TooLittleTime 	0
scalar MyScenario.node[113].nic.mac1609_4 	TimesIntoBackoff 	4
scalar MyScenario.node[113].nic.mac1609_4 	SlotsBackoff 	9
scalar MyScenario.node[113].nic.mac1609_4 	NumInternalContention 	0
scalar MyScenario.node[113].nic.mac1609_4 	totalBusyTime 	0.01446
scalar MyScenario.node[113].veinsmobility 	startTime 	25200
scalar MyScenario.node[113].veinsmobility 	totalTime 	3.7
scalar MyScenario.node[113].veinsmobility 	stopTime 	25203.8
scalar MyScenario.node[113].veinsmobility 	minSpeed 	1.5428952115241
scalar MyScenario.node[113].veinsmobility 	maxSpeed 	12.253941232785
scalar MyScenario.node[113].veinsmobility 	totalDistance 	31.796205677907
scalar MyScenario.node[113].veinsmobility 	totalCO2Emission 	4.8000788304282
scalar MyScenario.node[21].appl 	generatedWSMs 	0
scalar MyScenario.node[21].appl 	receivedWSMs 	0
scalar MyScenario.node[21].appl 	generatedBSMs 	3
scalar MyScenario.node[21].appl 	receivedBSMs 	102
scalar MyScenario.node[21].appl 	generatedWSAs 	0
scalar MyScenario.node[21].appl 	receivedWSAs 	0
scalar MyScenario.node[21].nic.phy80211p 	busyTime 	0.0027915789473684
scalar MyScenario.node[21].nic.mac1609_4 	ReceivedUnicastPackets 	0
scalar MyScenario.node[21].nic.mac1609_4 	ReceivedBroadcasts 	102
scalar MyScenario.node[21].nic.mac1609_4 	SentPackets 	3
scalar MyScenario.node[21].nic.mac1609_4 	SNIRLostPackets 	0
scalar MyScenario.node[21].nic.mac1609_4 	RXTXLostPackets 	0
scalar MyScenario.node[21].nic.mac1609_4 	TotalLostPackets 	0
scalar MyScenario.node[21].nic.mac1609_4 	DroppedPacketsInMac 	0
scalar MyScenario.node[21].nic.mac1609_4 	TooLittleTime 	0
scalar MyScenario.node[21].nic.mac1609_4 	TimesIntoBackoff 	3
scalar MyScenario.node[21].nic.mac1609_4 	SlotsBackoff 	4
scalar MyScenario.node[21].nic.mac1609_4 	NumInternalContention 	0
scalar MyScenario.node[21].nic.mac1609_4 	totalBusyTime 	0.010923
scalar MyScenario.node[21].veinsmobility 	startTime 	25200
scalar MyScenario.node[21].veinsmobility 	totalTime 	3.7
scalar MyScenario.node[21].veinsmobility 	stopTime 	25203.8
scalar MyScenario.node[21].veinsmobility 	minSpeed 	29.819842638579
scalar MyScenario.node[21].veinsmobility 	maxSpeed 	30.066769636884
scalar MyScenario.node[21].veinsmobility 	totalDistance 	110.93518539908
scalar MyScenario.node[21].veinsmobility 	totalCO2Emission 	20.872268956295
scalar MyScenario.node[85].appl 	generatedWSMs 	0
scalar MyScenario.node[85].appl 	receivedWSMs 	0
scalar MyScenario.node[85].appl 	generatedBSMs 	4
scalar MyScenario.node[85].appl 	receivedBSMs 	143
scalar MyScenario.node[85].appl 	generatedWSAs 	0
scalar MyScenario.node[85].appl 	receivedWSAs 	0
scalar MyScenario.node[85].nic.phy80211p 	busyTime 	0.003718
scalar MyScenario.node[85].nic.mac1609_4 	ReceivedUnicastPackets 	0
scalar MyScenario.node[85].nic.mac1609_4 	ReceivedBroadcasts 	143
scalar MyScenario.node[85].nic.mac1609_4 	SentPackets 	4
scalar MyScenario.node[85].nic.mac1609_4 	SNIRLostPackets 	0
scalar MyScenario.node[85].nic.mac1609_4 	RXTXLostPackets 	0
scalar MyScenario.node[85].nic.mac1609_4 	TotalLostPackets 	0
scalar MyScenario.node[85].nic.mac1609_4 	DroppedPacketsInMac 	0
scalar MyScenario.node[85].nic.mac1609_4 	TooLittleTime 	0
scalar MyScenario.node[85].nic.mac1609_4 	TimesIntoBackoff 	4
scalar MyScenario.node[85].nic.mac1609_4 	SlotsBackoff 	6
scalar MyScenario.node[85].nic.mac1609_4 	NumInternalContention 	0
scalar MyScenario.node[85].nic.mac1609_4 	totalBusyTime 	0.015292
scalar MyScenario.node[85].veinsmobility 	startTime 	25200
scalar MyScenario.node[85].veinsmobility 	totalTime 	3.9
scalar MyScenario.node[85].veinsmobility 	stopTime 	25204
scalar MyScenario.node[85].veinsmobility 	minSpeed 	13.257089190675
scalar MyScenario.node[85].veinsmobility 	maxSpeed 	14.073956993664
scalar MyScenario.node[85].veinsmobility 	totalDistance 	54.559176737788
scalar MyScenario.node[85].veinsmobility 	totalCO2Emission 	8.5445213814473
scalar MyScenario.node[84].appl 	generatedWSMs 	0
scalar MyScenario.node[84].appl 	receivedWSMs 	0
scalar MyScenario.node[84].appl 	generatedBSMs 	5
scalar MyScenario.node[84].appl 	receivedBSMs 	132
scalar MyScenario.node[84].appl 	generatedWSAs 	0
scalar MyScenario.node[84].appl 	receivedWSAs 	0
scalar MyScenario.node[84].nic.phy80211p 	busyTime 	0.00286
scalar MyScenario.node[84].nic.mac1609_4 	ReceivedUnicastPackets 	0
scalar MyScenario.node[84].nic.mac1609_4 	ReceivedBroadcasts 	132
scalar MyScenario.node[84].nic.mac1609_4 	SentPackets 	5
scalar MyScenario.node[84].nic.mac1609_4 	SNIRLostPackets 	0
scalar MyScenario.node[84].nic.mac1609_4 	RXTXLostPackets 	0
scalar MyScenario.node[84].nic.mac1609_4 	TotalLostPackets 	0
scalar MyScenario.node[84].nic.mac1609_4 	DroppedPacketsInMac 	0
scalar MyScenario.node[84].nic.mac1609_4 	TooLittleTime 	0
scalar MyScenario.node[84].nic.mac1609_4 	TimesIntoBackoff 	5
scalar MyScenario.node[84].nic.mac1609_4 	SlotsBackoff 	11
scalar MyScenario.node[84].nic.mac1609_4 	NumInternalContention 	0
scalar MyScenario.node[84].nic.mac1609_4 	totalBusyTime 	0.014253
scalar MyScenario.node[84].veinsmobility 	startTime 	25200
scalar MyScenario.node[84].veinsmobility 	totalTime 	4.7
scalar MyScenario.node[84].veinsmobility 	stopTime 	25204.8
scalar MyScenario.node[84].veinsmobility 	minSpeed 	29.821080324383
scalar MyScenario.node[84].veinsmobility 	maxSpeed 	30.080862694635
scalar MyScenario.node[84].veinsmobility 	totalDistance 	140.59931252674
scalar MyScenario.node[84].veinsmobility 	totalCO2Emission 	25.396476316997
scalar MyScenario.node[0].appl 	generatedWSMs 	0
scalar MyScenario.node[0].appl 	receivedWSMs 	0
scalar MyScenario.node[0].appl 	generatedBSMs 	6
scalar MyScenario.node[0].appl 	receivedBSMs 	161
scalar MyScenario.node[0].appl 	generatedWSAs 	0
scalar MyScenario.node[0].appl 	receivedWSAs 	0
scalar MyScenario.node[0].nic.phy80211p 	busyTime 	0.0027449180327869
scalar MyScenario.node[0].nic.mac1609_4 	ReceivedUnicastPackets 	0
scalar MyScenario.node[0].nic.mac1609_4 	ReceivedBroadcasts 	161
scalar MyScenario.node[0].nic.mac1609_4 	SentPackets 	6
scalar MyScenario.node[0].nic.mac1609_4 	SNIRLostPackets 	0
scalar MyScenario.node[0].nic.mac1609_4 	RXTXLostPackets 	0
scalar MyScenario.node[0].nic.mac1609_4 	TotalLostPackets 	0
scalar MyScenario.node[0].nic.mac1609_4 	DroppedPacketsInMac 	0
scalar MyScenario.node[0].nic.mac1609_4 	TooLittleTime 	0
scalar MyScenario.node[0].nic.mac1609_4 	TimesIntoBackoff 	6
scalar MyScenario.node[0].nic.mac1609_4 	SlotsBackoff 	10
scalar MyScenario.node[0].nic.mac1609_4 	NumInternalContention 	0
scalar MyScenario.node[0].nic.mac1609_4 	totalBusyTime 	0.017374
scalar MyScenario.node[0].veinsmobility 	startTime 	25200
scalar MyScenario.node[0].veinsmobility 	totalTime 	6
scalar MyScenario.node[0].veinsmobility 	stopTime 	25206.1
scalar MyScenario.node[0].veinsmobility 	minSpeed 	29.820335366234
scalar MyScenario.node[0].veinsmobility 	maxSpeed 	30.086263833167
scalar MyScenario.node[0].veinsmobility 	totalDistance 	179.48421900371
scalar MyScenario.node[0].veinsmobility 	totalCO2Emission 	33.473476755939
scalar MyScenario.node[142].appl 	generatedWSMs 	0
scalar MyScenario.node[142].appl 	receivedWSMs 	0
scalar MyScenario.node[142].appl 	generatedBSMs 	7
scalar MyScenario.node[142].appl 	receivedBSMs 	50
scalar MyScenario.node[142].appl 	generatedWSAs 	0
scalar MyScenario.node[142].appl 	receivedWSAs 	0
scalar MyScenario.node[142].nic.phy80211p 	busyTime 	0.0008
scalar MyScenario.node[142].nic.mac1609_4 	ReceivedUnicastPackets 	0
scalar MyScenario.node[142].nic.mac1609_4 	ReceivedBroadcasts 	50
scalar MyScenario.node[142].nic.mac1609_4 	SentPackets 	7
scalar MyScenario.node[142].nic.mac1609_4 	SNIRLostPackets 	0
scalar MyScenario.node[142].nic.mac1609_4 	RXTXLostPackets 	0
scalar MyScenario.node[142].nic.mac1609_4 	TotalLostPackets 	0
scalar MyScenario.node[142].nic.mac1609_4 	DroppedPacketsInMac 	0
scalar MyScenario.node[142].nic.mac1609_4 	TooLittleTime 	0
scalar MyScenario.node[142].nic.mac1609_4 	TimesIntoBackoff 	7
scalar MyScenario.node[142].nic.mac1609_4 	SlotsBackoff 	11
scalar MyScenario.node[142].nic.mac1609_4 	NumInternalContention 	0
scalar MyScenario.node[142].nic.mac1609_4 	totalBusyTime 	0.005935
scalar MyScenario.node[142].veinsmobility 	startTime 	25200
scalar MyScenario.node[142].veinsmobility 	totalTime 	6.4
scalar MyScenario.node[142].veinsmobility 	stopTime 	25206.5
scalar MyScenario.node[142].veinsmobility 	minSpeed 	1.50850792607
scalar MyScenario.node[142].veinsmobility 	maxSpeed 	17.90414063529
scalar MyScenario.node[142].veinsmobility 	totalDistance 	84.112477805163
scalar MyScenario.node[142].veinsmobility 	totalCO2Emission 	10.967824401138
scalar MyScenario.node[5].appl 	generatedWSMs 	0
scalar MyScenario.node[5].appl 	receivedWSMs 	0
scalar MyScenario.node[5].appl 	generatedBSMs 	6
scalar MyScenario.node[5].appl 	receivedBSMs 	167
scalar MyScenario.node[5].appl 	generatedWSAs 	0
scalar MyScenario.node[5].appl 	receivedWSAs 	0
scalar MyScenario.node[5].nic.phy80211p 	busyTime 	0.002672
scalar MyScenario.node[5].nic.mac1609_4 	ReceivedUnicastPackets 	0
scalar MyScenario.node[5].nic.mac1609_4 	ReceivedBroadcasts 	167
scalar MyScenario.node[5].nic.mac1609_4 	SentPackets 	6
scalar MyScenario.node[5].nic.mac1609_4 	SNIRLostPackets 	0
scalar MyScenario.node[5].nic.mac1609_4 	RXTXLostPackets 	0
scalar MyScenario.node[5].nic.mac1609_4 	TotalLostPackets 	0
scalar MyScenario.node[5].nic.mac1609_4 	DroppedPacketsInMac 	0
scalar MyScenario.node[5].nic.mac1609_4 	TooLittleTime 	0
scalar MyScenario.node[5].nic.mac1609_4 	TimesIntoBackoff 	6
scalar MyScenario.node[5].nic.mac1609_4 	SlotsBackoff 	10
scalar MyScenario.node[5].nic.mac1609_4 	NumInternalContention 	0
scalar MyScenario.node[5].nic.mac1609_4 	totalBusyTime 	0.017998
scalar MyScenario.node[5].veinsmobility 	startTime 	25200
scalar MyScenario.node[5].veinsmobility 	totalTime 	6.4
scalar MyScenario.node[5].veinsmobility 	stopTime 	25206.5
scalar MyScenario.node[5].veinsmobility 	minSpeed 	39.059166393719
scalar MyScenario.node[5].veinsmobility 	maxSpeed 	39.187710662196
scalar MyScenario.node[5].veinsmobility 	totalDistance 	250.6552784589
scalar MyScenario.node[5].veinsmobility 	totalCO2Emission 	54.178396666925
scalar MyScenario.node[166].appl 	generatedWSMs 	0
scalar MyScenario.node[166].appl 	receivedWSMs 	0
scalar MyScenario.node[166].appl 	generatedBSMs 	6
scalar MyScenario.node[166].appl 	receivedBSMs 	71
scalar MyScenario.node[166].appl 	generatedWSAs 	0
scalar MyScenario.node[166].appl 	receivedWSAs 	0
scalar MyScenario.node[166].nic.phy80211p 	busyTime 	0.001136
scalar MyScenario.node[166].nic.mac1609_4 	ReceivedUnicastPackets 	0
scalar MyScenario.node[166].nic.mac1609_4 	ReceivedBroadcasts 	71
scalar MyScenario.node[166].nic.mac1609_4 	SentPackets 	6
scalar MyScenario.node[166].nic.mac1609_4 	SNIRLostPackets 	0
scalar MyScenario.node[166].nic.mac1609_4 	RXTXLostPackets 	0
scalar MyScenario.node[166].nic.mac1609_4 	TotalLostPackets 	0
scalar MyScenario.node[166].nic.mac1609_4 	DroppedPacketsInMac 	0
scalar MyScenario.node[166].nic.mac1609_4 	TooLittleTime 	0
scalar MyScenario.node[166].nic.mac1609_4 	TimesIntoBackoff 	6
scalar MyScenario.node[166].nic.mac1609_4 	SlotsBackoff 	8
scalar MyScenario.node[166].nic.mac1609_4 	NumInternalContention 	0
scalar MyScenario.node[166].nic.mac1609_4 	totalBusyTime 	0.008014
scalar MyScenario.node[166].veinsmobility 	startTime 	25200
scalar MyScenario.node[166].veinsmobility 	totalTime 	6.4
scalar MyScenario.node[166].veinsmobility 	stopTime 	25206.5
scalar MyScenario.node[166].veinsmobility 	minSpeed 	12.921656371393
scalar MyScenario.node[166].veinsmobility 	maxSpeed 	13.479544919948
scalar MyScenario.node[166].veinsmobility 	totalDistance 	85.749090909458
scalar MyScenario.node[166].veinsmobility 	totalCO2Emission 	15.808618410756
scalar MyScenario.node[175].appl 	generatedWSMs 	0
scalar MyScenario.node[175].appl 	receivedWSMs 	0
scalar MyScenario.node[175].appl 	generatedBSMs 	7
scalar MyScenario.node[175].appl 	receivedBSMs 	72
scalar MyScenario.node[175].appl 	generatedWSAs 	0
scalar MyScenario.node[175].appl 	receivedWSAs 	0
scalar MyScenario.node[175].nic.phy80211p 	busyTime 	0.0010852173913043
scalar MyScenario.node[175].nic.mac1609_4 	ReceivedUnicastPackets 	0
scalar MyScenario.node[175].nic.mac1609_4 	ReceivedBroadcasts 	72
scalar MyScenario.node[175].nic.mac1609_4 	SentPackets 	7
scalar MyScenario.node[175].nic.mac1609_4 	SNIRLostPackets 	0
scalar MyScenario.node[175].nic.mac1609_4 	RXTXLostPackets 	0
scalar MyScenario.node[175].nic.mac1609_4 	TotalLostPackets 	0
scalar MyScenario.node[175].nic.mac1609_4 	DroppedPacketsInMac 	0
scalar MyScenario.node[175].nic.mac1609_4 	TooLittleTime 	0
scalar MyScenario.node[175].nic.mac1609_4 	TimesIntoBackoff 	7
scalar MyScenario.node[175].nic.mac1609_4 	SlotsBackoff 	12
scalar MyScenario.node[175].nic.mac1609_4 	NumInternalContention 	0
scalar MyScenario.node[175].nic.mac1609_4 	totalBusyTime 	0.008223
scalar MyScenario.node[175].veinsmobility 	startTime 	25200
scalar MyScenario.node[175].veinsmobility 	totalTime 	6.8
scalar MyScenario.node[175].veinsmobility 	stopTime 	25206.9
scalar MyScenario.node[175].veinsmobility 	minSpeed 	0.28529899971443
scalar MyScenario.node[175].veinsmobility 	maxSpeed 	15.61568935719
scalar MyScenario.node[175].veinsmobility 	totalDistance 	55.861820748979
scalar MyScenario.node[175].veinsmobility 	totalCO2Emission 	40.593902093022
scalar MyScenario.node[1].appl 	generatedWSMs 	0
scalar MyScenario.node[1].appl 	receivedWSMs 	0
scalar MyScenario.node[1].appl 	generatedBSMs 	7
scalar MyScenario.node[1].appl 	receivedBSMs 	178
scalar MyScenario.node[1].appl 	generatedWSAs 	0
scalar MyScenario.node[1].appl 	receivedWSAs 	0
scalar MyScenario.node[1].nic.phy80211p 	busyTime 	0.0025358904109589
scalar MyScenario.node[1].nic.mac1609_4 	ReceivedUnicastPackets 	0
scalar MyScenario.node[1].nic.mac1609_4 	ReceivedBroadcasts 	178
scalar MyScenario.node[1].nic.mac1609_4 	SentPackets 	7
scalar MyScenario.node[1].nic.mac1609_4 	SNIRLostPackets 	0
scalar MyScenario.node[1].nic.mac1609_4 	RXTXLostPackets 	0
scalar MyScenario.node[1].nic.mac1609_4 	TotalLostPackets 	0
scalar MyScenario.node[1].nic.mac1609_4 	DroppedPacketsInMac 	0
scalar MyScenario.node[1].nic.mac1609_4 	TooLittleTime 	0
scalar MyScenario.node[1].nic.mac1609_4 	TimesIntoBackoff 	7
scalar MyScenario.node[1].nic.mac1609_4 	SlotsBackoff 	17
scalar MyScenario.node[1].nic.mac1609_4 	NumInternalContention 	0
scalar MyScenario.node[1].nic.mac1609_4 	totalBusyTime 	0.019247
scalar MyScenario.node[1].veinsmobility 	startTime 	25200
scalar MyScenario.node[1].veinsmobility 	totalTime 	7.2
scalar MyScenario.node[1].veinsmobility 	stopTime 	25207.3
scalar MyScenario.node[1].veinsmobility 	minSpeed 	29.797597572536
scalar MyScenario.node[1].veinsmobility 	maxSpeed 	30.137776506037
scalar MyScenario.node[1].veinsmobility 	totalDistance 	215.425271632
scalar MyScenario.node[1].veinsmobility 	totalCO2Emission 	44.196183331502
scalar MyScenario.node[35].appl 	generatedWSMs 	0
scalar MyScenario.node[35].appl 	receivedWSMs 	0
scalar MyScenario.node[35].appl 	generatedBSMs 	8
scalar MyScenario.node[35].appl 	receivedBSMs 	85
scalar MyScenario.node[35].appl 	generatedWSAs 	0
scalar MyScenario.node[35].appl 	receivedWSAs 	0
scalar MyScenario.node[35].nic.phy80211p 	busyTime 	0.0010913580246914
scalar MyScenario.node[35].nic.mac1609_4 	ReceivedUnicastPackets 	0
scalar MyScenario.node[35].nic.mac1609_4 	ReceivedBroadcasts 	85
scalar MyScenario.node[35].nic.mac1609_4 	SentPackets 	8
scalar MyScenario.node[35].nic.mac1609_4 	SNIRLostPackets 	0
scalar MyScenario.node[35].nic.mac1609_4 	RXTXLostPackets 	0
scalar MyScenario.node[35].nic.mac1609_4 	TotalLostPackets 	0
scalar MyScenario.node[35].nic.mac1609_4 	DroppedPacketsInMac 	0
scalar MyScenario.node[35].nic.mac1609_4 	TooLittleTime 	0
scalar MyScenario.node[35].nic.mac1609_4 	TimesIntoBackoff 	8
scalar MyScenario.node[35].nic.mac1609_4 	SlotsBackoff 	12
scalar MyScenario.node[35].nic.mac1609_4 	NumInternalContention 	0
scalar MyScenario.node[35].nic.mac1609_4 	totalBusyTime 	0.00968
scalar MyScenario.node[35].veinsmobility 	startTime 	25200
scalar MyScenario.node[35].veinsmobility 	totalTime 	8
scalar MyScenario.node[35].veinsmobility 	stopTime 	25208.1
scalar MyScenario.node[35].veinsmobility 	minSpeed 	3.262716197047e-15
scalar MyScenario.node[35].veinsmobility 	maxSpeed 	14.321119549131
scalar MyScenario.node[35].veinsmobility 	totalDistance 	61.01515091449
scalar MyScenario.node[35].veinsmobility 	totalCO2Emission 	37.469161863843
scalar MyScenario.node[116].appl 	generatedWSMs 	0
scalar MyScenario.node[116].appl 	receivedWSMs 	0
scalar MyScenario.node[116].appl 	generatedBSMs 	8
scalar MyScenario.node[116].appl 	receivedBSMs 	223
scalar MyScenario.node[116].appl 	generatedWSAs 	0
scalar MyScenario.node[116].appl 	receivedWSAs 	0
scalar MyScenario.node[116].nic.phy80211p 	busyTime 	0.0026354545454545
scalar MyScenario.node[116].nic.mac1609_4 	ReceivedUnicastPackets 	0
scalar MyScenario.node[116].nic.mac1609_4 	ReceivedBroadcasts 	223
scalar MyScenario.node[116].nic.mac1609_4 	SentPackets 	8
scalar MyScenario.node[116].nic.mac1609_4 	SNIRLostPackets 	0
scalar MyScenario.node[116].nic.mac1609_4 	RXTXLostPackets 	0
scalar MyScenario.node[116].nic.mac1609_4 	TotalLostPackets 	0
scalar MyScenario.node[116].nic.mac1609_4 	DroppedPacketsInMac 	0
scalar MyScenario.node[116].nic.mac1609_4 	TooLittleTime 	0
scalar MyScenario.node[116].nic.mac1609_4 	TimesIntoBackoff 	8
scalar MyScenario.node[116].nic.mac1609_4 	SlotsBackoff 	10
scalar MyScenario.node[116].nic.mac1609_4 	NumInternalContention 	0
scalar MyScenario.node[116].nic.mac1609_4 	totalBusyTime 	0.024032
scalar MyScenario.node[116].veinsmobility 	startTime 	25200
scalar MyScenario.node[116].veinsmobility 	totalTime 	8.7
scalar MyScenario.node[116].veinsmobility 	stopTime 	25208.8
scalar MyScenario.node[116].veinsmobility 	minSpeed 	31.060036855285
scalar MyScenario.node[116].veinsmobility 	maxSpeed 	33.554230656292
scalar MyScenario.node[116].veinsmobility 	totalDistance 	279.7948032795
scalar MyScenario.node[116].veinsmobility 	totalCO2Emission 	39.763922382322
scalar MyScenario.node[55].appl 	generatedWSMs 	0
scalar MyScenario.node[55].appl 	receivedWSMs 	0
scalar MyScenario.node[55].appl 	generatedBSMs 	9
scalar MyScenario.node[55].appl 	receivedBSMs 	118
scalar MyScenario.node[55].appl 	generatedWSAs 	0
scalar MyScenario.node[55].appl 	receivedWSAs 	0
scalar MyScenario.node[55].nic.phy80211p 	busyTime 	0.0013339130434783
scalar MyScenario.node[55].nic.mac1609_4 	ReceivedUnicastPackets 	0
scalar MyScenario.node[55].nic.mac1609_4 	ReceivedBroadcasts 	118
scalar MyScenario.node[55].nic.mac1609_4 	SentPackets 	9
scalar MyScenario.node[55].nic.mac1609_4 	SNIRLostPackets 	0
scalar MyScenario.node[55].nic.mac1609_4 	RXTXLostPackets 	0
scalar MyScenario.node[55].nic.mac1609_4 	TotalLostPackets 	0
scalar MyScenario.node[55].nic.mac1609_4 	DroppedPacketsInMac 	0
scalar MyScenario.node[55].nic.mac1609_4 	TooLittleTime 	0
scalar MyScenario.node[55].nic.mac1609_4 	TimesIntoBackoff 	9
scalar MyScenario.node[55].nic.mac1609_4 	SlotsBackoff 	10
scalar MyScenario.node[55].nic.mac1609_4 	NumInternalContention 	0
scalar MyScenario.node[55].nic.mac1609_4 	totalBusyTime 	0.013217
scalar MyScenario.node[55].veinsmobility 	startTime 	25200
scalar MyScenario.node[55].veinsmobility 	totalTime 	9.1
scalar MyScenario.node[55].veinsmobility 	stopTime 	25209.2
scalar MyScenario.node[55].veinsmobility 	minSpeed 	0.25873017373406
scalar MyScenario.node[55].veinsmobility 	maxSpeed 	14.931247258788
scalar MyScenario.node[55].veinsmobility 	totalDistance 	82.423158104515
scalar MyScenario.node[55].veinsmobility 	totalCO2Emission 	42.521539543862
scalar MyScenario.node[16].appl 	generatedWSMs 	0
scalar MyScenario.node[16].appl 	receivedWSMs 	0
scalar MyScenario.node[16].appl 	generatedBSMs 	10
scalar MyScenario.node[16].appl 	receivedBSMs 	290
scalar MyScenario.node[16].appl 	generatedWSAs 	0
scalar MyScenario.node[16].appl 	receivedWSAs 	0
scalar MyScenario.node[16].nic.phy80211p 	busyTime 	0.0031416666666667
scalar MyScenario.node[16].nic.mac1609_4 	ReceivedUnicastPackets 	0
scalar MyScenario.node[16].nic.mac1609_4 	ReceivedBroadcasts 	290
scalar MyScenario.node[16].nic.mac1609_4 	SentPackets 	10
scalar MyScenario.node[16].nic.mac1609_4 	SNIRLostPackets 	0
scalar MyScenario.node[16].nic.mac1609_4 	RXTXLostPackets 	0
scalar MyScenario.node[16].nic.mac1609_4 	TotalLostPackets 	0
scalar MyScenario.node[16].nic.mac1609_4 	DroppedPacketsInMac 	0
scalar MyScenario.node[16].nic.mac1609_4 	TooLittleTime 	0
scalar MyScenario.node[16].nic.mac1609_4 	TimesIntoBackoff 	10
scalar MyScenario.node[16].nic.mac1609_4 	SlotsBackoff 	13
scalar MyScenario.node[16].nic.mac1609_4 	NumInternalContention 	0
scalar MyScenario.node[16].nic.mac1609_4 	totalBusyTime 	0.03121
scalar MyScenario.node[16].veinsmobility 	startTime 	25200
scalar MyScenario.node[16].veinsmobility 	totalTime 	9.5
scalar MyScenario.node[16].veinsmobility 	stopTime 	25209.6
scalar MyScenario.node[16].veinsmobility 	minSpeed 	29.88528478924
scalar MyScenario.node[16].veinsmobility 	maxSpeed 	29.999364262628
scalar MyScenario.node[16].veinsmobility 	totalDistance 	284.10400073881
scalar MyScenario.node[16].veinsmobility 	totalCO2Emission 	47.992321381794
scalar MyScenario.node[6].appl 	generatedWSMs 	0
scalar MyScenario.node[6].appl 	receivedWSMs 	0
scalar MyScenario.node[6].appl 	generatedBSMs 	10
scalar MyScenario.node[6].appl 	receivedBSMs 	274
scalar MyScenario.node[6].appl 	generatedWSAs 	0
scalar MyScenario.node[6].appl 	receivedWSAs 	0
scalar MyScenario.node[6].nic.phy80211p 	busyTime 	0.00275
scalar MyScenario.node[6].nic.mac1609_4 	ReceivedUnicastPackets 	0
scalar MyScenario.node[6].nic.mac1609_4 	ReceivedBroadcasts 	274
scalar MyScenario.node[6].nic.mac1609_4 	SentPackets 	10
scalar MyScenario.node[6].nic.mac1609_4 	SNIRLostPackets 	1
scalar MyScenario.node[6].nic.mac1609_4 	RXTXLostPackets 	0
scalar MyScenario.node[6].nic.mac1609_4 	TotalLostPackets 	1
scalar MyScenario.node[6].nic.mac1609_4 	DroppedPacketsInMac 	0
scalar MyScenario.node[6].nic.mac1609_4 	TooLittleTime 	0
scalar MyScenario.node[6].nic.mac1609_4 	TimesIntoBackoff 	10
scalar MyScenario.node[6].nic.mac1609_4 	SlotsBackoff 	10
scalar MyScenario.node[6].nic.mac1609_4 	NumInternalContention 	0
scalar MyScenario.node[6].nic.mac1609_4 	totalBusyTime 	0.02965
scalar MyScenario.node[6].veinsmobility 	startTime 	25200
scalar MyScenario.node[6].veinsmobility 	totalTime 	10.3
scalar MyScenario.node[6].veinsmobility 	stopTime 	25210.4
scalar MyScenario.node[6].veinsmobility 	minSpeed 	32.457747906071
scalar MyScenario.node[6].veinsmobility 	maxSpeed 	37.845747561811
scalar MyScenario.node[6].veinsmobility 	totalDistance 	357.87157528006
scalar MyScenario.node[6].veinsmobility 	totalCO2Emission 	44.351289968131
scalar MyScenario.node[48].appl 	generatedWSMs 	0
scalar MyScenario.node[48].appl 	receivedWSMs 	0
scalar MyScenario.node[48].appl 	generatedBSMs 	10
scalar MyScenario.node[48].appl 	receivedBSMs 	280
scalar MyScenario.node[48].appl 	generatedWSAs 	0
scalar MyScenario.node[48].appl 	receivedWSAs 	0
scalar MyScenario.node[48].nic.phy80211p 	busyTime 	0.0027733333333333
scalar MyScenario.node[48].nic.mac1609_4 	ReceivedUnicastPackets 	0
scalar MyScenario.node[48].nic.mac1609_4 	ReceivedBroadcasts 	280
scalar MyScenario.node[48].nic.mac1609_4 	SentPackets 	10
scalar MyScenario.node[48].nic.mac1609_4 	SNIRLostPackets 	0
scalar MyScenario.node[48].nic.mac1609_4 	RXTXLostPackets 	0
scalar MyScenario.node[48].nic.mac1609_4 	TotalLostPackets 	0
scalar MyScenario.node[48].nic.mac1609_4 	DroppedPacketsInMac 	0
scalar MyScenario.node[48].nic.mac1609_4 	TooLittleTime 	0
scalar MyScenario.node[48].nic.mac1609_4 	TimesIntoBackoff 	10
scalar MyScenario.node[48].nic.mac1609_4 	SlotsBackoff 	12
scalar MyScenario.node[48].nic.mac1609_4 	NumInternalContention 	0
scalar MyScenario.node[48].nic.mac1609_4 	totalBusyTime 	0.03017
scalar MyScenario.node[48].veinsmobility 	startTime 	25200
scalar MyScenario.node[48].veinsmobility 	totalTime 	10.4
scalar MyScenario.node[48].veinsmobility 	stopTime 	25210.5
scalar MyScenario.node[48].veinsmobility 	minSpeed 	31.978219954035
scalar MyScenario.node[48].veinsmobility 	maxSpeed 	32.114009510277
scalar MyScenario.node[48].veinsmobility 	totalDistance 	332.87801565812
scalar MyScenario.node[48].veinsmobility 	totalCO2Emission 	60.182212492983
scalar MyScenario.node[162].appl 	generatedWSMs 	0
scalar MyScenario.node[162].appl 	receivedWSMs 	0
scalar MyScenario.node[162].appl 	generatedBSMs 	10
scalar MyScenario.node[162].appl 	receivedBSMs 	134
scalar MyScenario.node[162].appl 	generatedWSAs 	0
scalar MyScenario.node[162].appl 	receivedWSAs 	0
scalar MyScenario.node[162].nic.phy80211p 	busyTime 	0.0013272380952381
scalar MyScenario.node[162].nic.mac1609_4 	ReceivedUnicastPackets 	0
scalar MyScenario.node[162].nic.mac1609_4 	ReceivedBroadcasts 	134
scalar MyScenario.node[162].nic.mac1609_4 	SentPackets 	10
scalar MyScenario.node[162].nic.mac1609_4 	SNIRLostPackets 	0
scalar MyScenario.node[162].nic.mac1609_4 	RXTXLostPackets 	0
scalar MyScenario.node[162].nic.mac1609_4 	TotalLostPackets 	0
scalar MyScenario.node[162].nic.mac1609_4 	DroppedPacketsInMac 	0
scalar MyScenario.node[162].nic.mac1609_4 	TooLittleTime 	0
scalar MyScenario.node[162].nic.mac1609_4 	TimesIntoBackoff 	10
scalar MyScenario.node[162].nic.mac1609_4 	SlotsBackoff 	15
scalar MyScenario.node[162].nic.mac1609_4 	NumInternalContention 	0
scalar MyScenario.node[162].nic.mac1609_4 	totalBusyTime 	0.014986
scalar MyScenario.node[162].veinsmobility 	startTime 	25200
scalar MyScenario.node[162].veinsmobility 	totalTime 	10.4
scalar MyScenario.node[162].veinsmobility 	stopTime 	25210.5
scalar MyScenario.node[162].veinsmobility 	minSpeed 	4.759689107319e-14
scalar MyScenario.node[162].veinsmobility 	maxSpeed 	14.380424393337
scalar MyScenario.node[162].veinsmobility 	totalDistance 	89.066852763848
scalar MyScenario.node[162].veinsmobility 	totalCO2Emission 	42.63137972826
scalar MyScenario.node[176].appl 	generatedWSMs 	0
scalar MyScenario.node[176].appl 	receivedWSMs 	0
scalar MyScenario.node[176].appl 	generatedBSMs 	11
scalar MyScenario.node[176].appl 	receivedBSMs 	149
scalar MyScenario.node[176].appl 	generatedWSAs 	0
scalar MyScenario.node[176].appl 	receivedWSAs 	0
scalar MyScenario.node[176].nic.phy80211p 	busyTime 	0.0014348148148148
scalar MyScenario.node[176].nic.mac1609_4 	ReceivedUnicastPackets 	0
scalar MyScenario.node[176].nic.mac1609_4 	ReceivedBroadcasts 	149
scalar MyScenario.node[176].nic.mac1609_4 	SentPackets 	11
scalar MyScenario.node[176].nic.mac1609_4 	SNIRLostPackets 	0
scalar MyScenario.node[176].nic.mac1609_4 	RXTXLostPackets 	0
scalar MyScenario.node[176].nic.mac1609_4 	TotalLostPackets 	0
scalar MyScenario.node[176].nic.mac1609_4 	DroppedPacketsInMac 	0
scalar MyScenario.node[176].nic.mac1609_4 	TooLittleTime 	0
scalar MyScenario.node[176].nic.mac1609_4 	TimesIntoBackoff 	11
scalar MyScenario.node[176].nic.mac1609_4 	SlotsBackoff 	18
scalar MyScenario.node[176].nic.mac1609_4 	NumInternalContention 	0
scalar MyScenario.node[176].nic.mac1609_4 	totalBusyTime 	0.016651
scalar MyScenario.node[176].veinsmobility 	startTime 	25200
scalar MyScenario.node[176].veinsmobility 	totalTime 	10.7
scalar MyScenario.node[176].veinsmobility 	stopTime 	25210.8
scalar MyScenario.node[176].veinsmobility 	minSpeed 	0.25128757710946
scalar MyScenario.node[176].veinsmobility 	maxSpeed 	13.653684040568
scalar MyScenario.node[176].veinsmobility 	totalDistance 	104.49737827977
scalar MyScenario.node[176].veinsmobility 	totalCO2Emission 	41.238850852801
scalar MyScenario.node[200].appl 	generatedWSMs 	0
scalar MyScenario.node[200].appl 	receivedWSMs 	0
scalar MyScenario.node[200].appl 	generatedBSMs 	11
scalar MyScenario.node[200].appl 	receivedBSMs 	295
scalar MyScenario.node[200].appl 	generatedWSAs 	0
scalar MyScenario.node[200].appl 	receivedWSAs 	0
scalar MyScenario.node[200].nic.phy80211p 	busyTime 	0.0028146788990826
scalar MyScenario.node[200].nic.mac1609_4 	ReceivedUnicastPackets 	0
scalar MyScenario.node[200].nic.mac1609_4 	ReceivedBroadcasts 	295
scalar MyScenario.node[200].nic.mac1609_4 	SentPackets 	11
scalar MyScenario.node[200].nic.mac1609_4 	SNIRLostPackets 	0
scalar MyScenario.node[200].nic.mac1609_4 	RXTXLostPackets 	0
scalar MyScenario.node[200].nic.mac1609_4 	TotalLostPackets 	0
scalar MyScenario.node[200].nic.mac1609_4 	DroppedPacketsInMac 	0
scalar MyScenario.node[200].nic.mac1609_4 	TooLittleTime 	0
scalar MyScenario.node[200].nic.mac1609_4 	TimesIntoBackoff 	11
scalar MyScenario.node[200].nic.mac1609_4 	SlotsBackoff 	22
scalar MyScenario.node[200].nic.mac1609_4 	NumInternalContention 	0
scalar MyScenario.node[200].nic.mac1609_4 	totalBusyTime 	0.031835
scalar MyScenario.node[200].veinsmobility 	startTime 	25200
scalar MyScenario.node[200].veinsmobility 	totalTime 	10.8
scalar MyScenario.node[200].veinsmobility 	stopTime 	25210.9
scalar MyScenario.node[200].veinsmobility 	minSpeed 	33.356668946244
scalar MyScenario.node[200].veinsmobility 	maxSpeed 	33.48544293423
scalar MyScenario.node[200].veinsmobility 	totalDistance 	361.31565945642
scalar MyScenario.node[200].veinsmobility 	totalCO2Emission 	65.815283817602
scalar MyScenario.node[214].appl 	generatedWSMs 	0
scalar MyScenario.node[214].appl 	receivedWSMs 	0
scalar MyScenario.node[214].appl 	generatedBSMs 	10
scalar MyScenario.node[214].appl 	receivedBSMs 	10
scalar MyScenario.node[214].appl 	generatedWSAs 	0
scalar MyScenario.node[214].appl 	receivedWSAs 	0
scalar MyScenario.node[214].nic.phy80211p 	busyTime 	9.5412844036697e-05
scalar MyScenario.node[214].nic.mac1609_4 	ReceivedUnicastPackets 	0
scalar MyScenario.node[214].nic.mac1609_4 	ReceivedBroadcasts 	10
scalar MyScenario.node[214].nic.mac1609_4 	SentPackets 	10
scalar MyScenario.node[214].nic.mac1609_4 	SNIRLostPackets 	0
scalar MyScenario.node[214].nic.mac1609_4 	RXTXLostPackets 	0
scalar MyScenario.node[214].nic.mac1609_4 	TotalLostPackets 	0
scalar MyScenario.node[214].nic.mac1609_4 	DroppedPacketsInMac 	0
scalar MyScenario.node[214].nic.mac1609_4 	TooLittleTime 	0
scalar MyScenario.node[214].nic.mac1609_4 	TimesIntoBackoff 	10
scalar MyScenario.node[214].nic.mac1609_4 	SlotsBackoff 	14
scalar MyScenario.node[214].nic.mac1609_4 	NumInternalContention 	0
scalar MyScenario.node[214].nic.mac1609_4 	totalBusyTime 	0.00209
scalar MyScenario.node[214].veinsmobility 	startTime 	25200
scalar MyScenario.node[214].veinsmobility 	totalTime 	10.8
scalar MyScenario.node[214].veinsmobility 	stopTime 	25210.9
scalar MyScenario.node[214].veinsmobility 	minSpeed 	15.714802179848
scalar MyScenario.node[214].veinsmobility 	maxSpeed 	15.864218361014
scalar MyScenario.node[214].veinsmobility 	totalDistance 	170.71258665298
scalar MyScenario.node[214].veinsmobility 	totalCO2Emission 	28.825438753311
scalar MyScenario.node[131].appl 	generatedWSMs 	0
scalar MyScenario.node[131].appl 	receivedWSMs 	0
scalar MyScenario.node[131].appl 	generatedBSMs 	11
scalar MyScenario.node[131].appl 	receivedBSMs 	236
scalar MyScenario.node[131].appl 	generatedWSAs 	0
scalar MyScenario.node[131].appl 	receivedWSAs 	0
scalar MyScenario.node[131].nic.phy80211p 	busyTime 	0.0022312727272727
scalar MyScenario.node[131].nic.mac1609_4 	ReceivedUnicastPackets 	0
scalar MyScenario.node[131].nic.mac1609_4 	ReceivedBroadcasts 	236
scalar MyScenario.node[131].nic.mac1609_4 	SentPackets 	11
scalar MyScenario.node[131].nic.mac1609_4 	SNIRLostPackets 	0
scalar MyScenario.node[131].nic.mac1609_4 	RXTXLostPackets 	0
scalar MyScenario.node[131].nic.mac1609_4 	TotalLostPackets 	0
scalar MyScenario.node[131].nic.mac1609_4 	DroppedPacketsInMac 	0
scalar MyScenario.node[131].nic.mac1609_4 	TooLittleTime 	0
scalar MyScenario.node[131].nic.mac1609_4 	TimesIntoBackoff 	11
scalar MyScenario.node[131].nic.mac1609_4 	SlotsBackoff 	16
scalar MyScenario.node[131].nic.mac1609_4 	NumInternalContention 	0
scalar MyScenario.node[131].nic.mac1609_4 	totalBusyTime 	0.025699
scalar MyScenario.node[131].veinsmobility 	startTime 	25200
scalar MyScenario.node[131].veinsmobility 	totalTime 	10.9
scalar MyScenario.node[131].veinsmobility 	stopTime 	25211
scalar MyScenario.node[131].veinsmobility 	minSpeed 	1.5919936551715
scalar MyScenario.node[131].veinsmobility 	maxSpeed 	15.261139420155
scalar MyScenario.node[131].veinsmobility 	totalDistance 	113.63557869061
scalar MyScenario.node[131].veinsmobility 	totalCO2Emission 	42.183819386433
scalar MyScenario.node[7].appl 	generatedWSMs 	0
scalar MyScenario.node[7].appl 	receivedWSMs 	0
scalar MyScenario.node[7].appl 	generatedBSMs 	12
scalar MyScenario.node[7].appl 	receivedBSMs 	316
scalar MyScenario.node[7].appl 	generatedWSAs 	0
scalar MyScenario.node[7].appl 	receivedWSAs 	0
scalar MyScenario.node[7].nic.phy80211p 	busyTime 	0.0027938983050847
scalar MyScenario.node[7].nic.mac1609_4 	ReceivedUnicastPackets 	0
scalar MyScenario.node[7].nic.mac1609_4 	ReceivedBroadcasts 	316
scalar MyScenario.node[7].nic.mac1609_4 	SentPackets 	12
scalar MyScenario.node[7].nic.mac1609_4 	SNIRLostPackets 	1
scalar MyScenario.node[7].nic.mac1609_4 	RXTXLostPackets 	0
scalar MyScenario.node[7].nic.mac1609_4 	TotalLostPackets 	1
scalar MyScenario.node[7].nic.mac1609_4 	DroppedPacketsInMac 	0
scalar MyScenario.node[7].nic.mac1609_4 	TooLittleTime 	0
scalar MyScenario.node[7].nic.mac1609_4 	TimesIntoBackoff 	12
scalar MyScenario.node[7].nic.mac1609_4 	SlotsBackoff 	15
scalar MyScenario.node[7].nic.mac1609_4 	NumInternalContention 	0
scalar MyScenario.node[7].nic.mac1609_4 	totalBusyTime 	0.034228
scalar MyScenario.node[7].veinsmobility 	startTime 	25200
scalar MyScenario.node[7].veinsmobility 	totalTime 	11.7
scalar MyScenario.node[7].veinsmobility 	stopTime 	25211.8
scalar MyScenario.node[7].veinsmobility 	minSpeed 	32.456775016185
scalar MyScenario.node[7].veinsmobility 	maxSpeed 	38.319235974587
scalar MyScenario.node[7].veinsmobility 	totalDistance 	408.97057940075
scalar MyScenario.node[7].veinsmobility 	totalCO2Emission 	59.669462818615
scalar MyScenario.node[154].appl 	generatedWSMs 	0
scalar MyScenario.node[154].appl 	receivedWSMs 	0
scalar MyScenario.node[154].appl 	generatedBSMs 	12
scalar MyScenario.node[154].appl 	receivedBSMs 	325
scalar MyScenario.node[154].appl 	generatedWSAs 	0
scalar MyScenario.node[154].appl 	receivedWSAs 	0
scalar MyScenario.node[154].nic.phy80211p 	busyTime 	0.002864406779661
scalar MyScenario.node[154].nic.mac1609_4 	ReceivedUnicastPackets 	0
scalar MyScenario.node[154].nic.mac1609_4 	ReceivedBroadcasts 	325
scalar MyScenario.node[154].nic.mac1609_4 	SentPackets 	12
scalar MyScenario.node[154].nic.mac1609_4 	SNIRLostPackets 	0
scalar MyScenario.node[154].nic.mac1609_4 	RXTXLostPackets 	0
scalar MyScenario.node[154].nic.mac1609_4 	TotalLostPackets 	0
scalar MyScenario.node[154].nic.mac1609_4 	DroppedPacketsInMac 	0
scalar MyScenario.node[154].nic.mac1609_4 	TooLittleTime 	0
scalar MyScenario.node[154].nic.mac1609_4 	TimesIntoBackoff 	12
scalar MyScenario.node[154].nic.mac1609_4 	SlotsBackoff 	24
scalar MyScenario.node[154].nic.mac1609_4 	NumInternalContention 	0
scalar MyScenario.node[154].nic.mac1609_4 	totalBusyTime 	0.03506
scalar MyScenario.node[154].veinsmobility 	startTime 	25200
scalar MyScenario.node[154].veinsmobility 	totalTime 	11.7
scalar MyScenario.node[154].veinsmobility 	stopTime 	25211.8
scalar MyScenario.node[154].veinsmobility 	minSpeed 	32.036037799732
scalar MyScenario.node[154].veinsmobility 	maxSpeed 	32.420487785233
scalar MyScenario.node[154].veinsmobility 	totalDistance 	376.57525651358
scalar MyScenario.node[154].veinsmobility 	totalCO2Emission 	72.5347883933
scalar MyScenario.node[47].appl 	generatedWSMs 	0
scalar MyScenario.node[47].appl 	receivedWSMs 	0
scalar MyScenario.node[47].appl 	generatedBSMs 	12
scalar MyScenario.node[47].appl 	receivedBSMs 	181
scalar MyScenario.node[47].appl 	generatedWSAs 	0
scalar MyScenario.node[47].appl 	receivedWSAs 	0
scalar MyScenario.node[47].nic.phy80211p 	busyTime 	0.0015818487394958
scalar MyScenario.node[47].nic.mac1609_4 	ReceivedUnicastPackets 	0
scalar MyScenario.node[47].nic.mac1609_4 	ReceivedBroadcasts 	181
scalar MyScenario.node[47].nic.mac1609_4 	SentPackets 	12
scalar MyScenario.node[47].nic.mac1609_4 	SNIRLostPackets 	0
scalar MyScenario.node[47].nic.mac1609_4 	RXTXLostPackets 	0
scalar MyScenario.node[47].nic.mac1609_4 	TotalLostPackets 	0
scalar MyScenario.node[47].nic.mac1609_4 	DroppedPacketsInMac 	0
scalar MyScenario.node[47].nic.mac1609_4 	TooLittleTime 	0
scalar MyScenario.node[47].nic.mac1609_4 	TimesIntoBackoff 	12
scalar MyScenario.node[47].nic.mac1609_4 	SlotsBackoff 	18
scalar MyScenario.node[47].nic.mac1609_4 	NumInternalContention 	0
scalar MyScenario.node[47].nic.mac1609_4 	totalBusyTime 	0.020084
scalar MyScenario.node[47].veinsmobility 	startTime 	25200
scalar MyScenario.node[47].veinsmobility 	totalTime 	11.8
scalar MyScenario.node[47].veinsmobility 	stopTime 	25211.9
scalar MyScenario.node[47].veinsmobility 	minSpeed 	0.25355869740229
scalar MyScenario.node[47].veinsmobility 	maxSpeed 	12.772992435584
scalar MyScenario.node[47].veinsmobility 	totalDistance 	102.67814243254
scalar MyScenario.node[47].veinsmobility 	totalCO2Emission 	49.061839434956
scalar MyScenario.node[220].appl 	generatedWSMs 	0
scalar MyScenario.node[220].appl 	receivedWSMs 	0
scalar MyScenario.node[220].appl 	generatedBSMs 	12
scalar MyScenario.node[220].appl 	receivedBSMs 	228
scalar MyScenario.node[220].appl 	generatedWSAs 	0
scalar MyScenario.node[220].appl 	receivedWSAs 	0
scalar MyScenario.node[220].nic.phy80211p 	busyTime 	0.001943606557377
scalar MyScenario.node[220].nic.mac1609_4 	ReceivedUnicastPackets 	0
scalar MyScenario.node[220].nic.mac1609_4 	ReceivedBroadcasts 	228
scalar MyScenario.node[220].nic.mac1609_4 	SentPackets 	12
scalar MyScenario.node[220].nic.mac1609_4 	SNIRLostPackets 	0
scalar MyScenario.node[220].nic.mac1609_4 	RXTXLostPackets 	0
scalar MyScenario.node[220].nic.mac1609_4 	TotalLostPackets 	0
scalar MyScenario.node[220].nic.mac1609_4 	DroppedPacketsInMac 	0
scalar MyScenario.node[220].nic.mac1609_4 	TooLittleTime 	0
scalar MyScenario.node[220].nic.mac1609_4 	TimesIntoBackoff 	12
scalar MyScenario.node[220].nic.mac1609_4 	SlotsBackoff 	17
scalar MyScenario.node[220].nic.mac1609_4 	NumInternalContention 	0
scalar MyScenario.node[220].nic.mac1609_4 	totalBusyTime 	0.024972
scalar MyScenario.node[220].veinsmobility 	startTime 	25200
scalar MyScenario.node[220].veinsmobility 	totalTime 	12.1
scalar MyScenario.node[220].veinsmobility 	stopTime 	25212.2
scalar MyScenario.node[220].veinsmobility 	minSpeed 	0.27746650590612
scalar MyScenario.node[220].veinsmobility 	maxSpeed 	14.709121386062
scalar MyScenario.node[220].veinsmobility 	totalDistance 	108.37453625827
scalar MyScenario.node[220].veinsmobility 	totalCO2Emission 	44.878396164324
scalar MyScenario.node[172].appl 	generatedWSMs 	0
scalar MyScenario.node[172].appl 	receivedWSMs 	0
scalar MyScenario.node[172].appl 	generatedBSMs 	12
scalar MyScenario.node[172].appl 	receivedBSMs 	322
scalar MyScenario.node[172].appl 	generatedWSAs 	0
scalar MyScenario.node[172].appl 	receivedWSAs 	0
scalar MyScenario.node[172].nic.phy80211p 	busyTime 	0.0027449180327869
scalar MyScenario.node[172].nic.mac1609_4 	ReceivedUnicastPackets 	0
scalar MyScenario.node[172].nic.mac1609_4 	ReceivedBroadcasts 	322
scalar MyScenario.node[172].nic.mac1609_4 	SentPackets 	12
scalar MyScenario.node[172].nic.mac1609_4 	SNIRLostPackets 	0
scalar MyScenario.node[172].nic.mac1609_4 	RXTXLostPackets 	0
scalar MyScenario.node[172].nic.mac1609_4 	TotalLostPackets 	0
scalar MyScenario.node[172].nic.mac1609_4 	DroppedPacketsInMac 	0
scalar MyScenario.node[172].nic.mac1609_4 	TooLittleTime 	0
scalar MyScenario.node[172].nic.mac1609_4 	TimesIntoBackoff 	12
scalar MyScenario.node[172].nic.mac1609_4 	SlotsBackoff 	20
scalar MyScenario.node[172].nic.mac1609_4 	NumInternalContention 	0
scalar MyScenario.node[172].nic.mac1609_4 	totalBusyTime 	0.034748
scalar MyScenario.node[172].veinsmobility 	startTime 	25200
scalar MyScenario.node[172].veinsmobility 	totalTime 	12.1
scalar MyScenario.node[172].veinsmobility 	stopTime 	25212.2
scalar MyScenario.node[172].veinsmobility 	minSpeed 	33.124265780494
scalar MyScenario.node[172].veinsmobility 	maxSpeed 	33.447751604388
scalar MyScenario.node[172].veinsmobility 	totalDistance 	403.52432328864
scalar MyScenario.node[172].veinsmobility 	totalCO2Emission 	82.999198742845
scalar MyScenario.node[2].appl 	generatedWSMs 	0
scalar MyScenario.node[2].appl 	receivedWSMs 	0
scalar MyScenario.node[2].appl 	generatedBSMs 	13
scalar MyScenario.node[2].appl 	receivedBSMs 	349
scalar MyScenario.node[2].appl 	generatedWSAs 	0
scalar MyScenario.node[2].appl 	receivedWSAs 	0
scalar MyScenario.node[2].nic.phy80211p 	busyTime 	0.002792
scalar MyScenario.node[2].nic.mac1609_4 	ReceivedUnicastPackets 	0
scalar MyScenario.node[2].nic.mac1609_4 	ReceivedBroadcasts 	349
scalar MyScenario.node[2].nic.mac1609_4 	SentPackets 	13
scalar MyScenario.node[2].nic.mac1609_4 	SNIRLostPackets 	0
scalar MyScenario.node[2].nic.mac1609_4 	RXTXLostPackets 	0
scalar MyScenario.node[2].nic.mac1609_4 	TotalLostPackets 	0
scalar MyScenario.node[2].nic.mac1609_4 	DroppedPacketsInMac 	0
scalar MyScenario.node[2].nic.mac1609_4 	TooLittleTime 	0
scalar MyScenario.node[2].nic.mac1609_4 	TimesIntoBackoff 	13
scalar MyScenario.node[2].nic.mac1609_4 	SlotsBackoff 	19
scalar MyScenario.node[2].nic.mac1609_4 	NumInternalContention 	0
scalar MyScenario.node[2].nic.mac1609_4 	totalBusyTime 	0.037661
scalar MyScenario.node[2].veinsmobility 	startTime 	25200
scalar MyScenario.node[2].veinsmobility 	totalTime 	12.9
scalar MyScenario.node[2].veinsmobility 	stopTime 	25213
scalar MyScenario.node[2].veinsmobility 	minSpeed 	32.043735676831
scalar MyScenario.node[2].veinsmobility 	maxSpeed 	32.595085089265
scalar MyScenario.node[2].veinsmobility 	totalDistance 	415.76050653016
scalar MyScenario.node[2].veinsmobility 	totalCO2Emission 	83.683155908061
scalar MyScenario.node[165].appl 	generatedWSMs 	0
scalar MyScenario.node[165].appl 	receivedWSMs 	0
scalar MyScenario.node[165].appl 	generatedBSMs 	13
scalar MyScenario.node[165].appl 	receivedBSMs 	145
scalar MyScenario.node[165].appl 	generatedWSAs 	0
scalar MyScenario.node[165].appl 	receivedWSAs 	0
scalar MyScenario.node[165].nic.phy80211p 	busyTime 	0.0011007299270073
scalar MyScenario.node[165].nic.mac1609_4 	ReceivedUnicastPackets 	0
scalar MyScenario.node[165].nic.mac1609_4 	ReceivedBroadcasts 	145
scalar MyScenario.node[165].nic.mac1609_4 	SentPackets 	13
scalar MyScenario.node[165].nic.mac1609_4 	SNIRLostPackets 	0
scalar MyScenario.node[165].nic.mac1609_4 	RXTXLostPackets 	0
scalar MyScenario.node[165].nic.mac1609_4 	TotalLostPackets 	0
scalar MyScenario.node[165].nic.mac1609_4 	DroppedPacketsInMac 	0
scalar MyScenario.node[165].nic.mac1609_4 	TooLittleTime 	0
scalar MyScenario.node[165].nic.mac1609_4 	TimesIntoBackoff 	13
scalar MyScenario.node[165].nic.mac1609_4 	SlotsBackoff 	14
scalar MyScenario.node[165].nic.mac1609_4 	NumInternalContention 	0
scalar MyScenario.node[165].nic.mac1609_4 	totalBusyTime 	0.016445
scalar MyScenario.node[165].veinsmobility 	startTime 	25200
scalar MyScenario.node[165].veinsmobility 	totalTime 	13.6
scalar MyScenario.node[165].veinsmobility 	stopTime 	25213.7
scalar MyScenario.node[165].veinsmobility 	minSpeed 	15.710475963769
scalar MyScenario.node[165].veinsmobility 	maxSpeed 	15.838396574963
scalar MyScenario.node[165].veinsmobility 	totalDistance 	215.52358320972
scalar MyScenario.node[165].veinsmobility 	totalCO2Emission 	34.324303585718
scalar MyScenario.node[196].appl 	generatedWSMs 	0
scalar MyScenario.node[196].appl 	receivedWSMs 	0
scalar MyScenario.node[196].appl 	generatedBSMs 	14
scalar MyScenario.node[196].appl 	receivedBSMs 	193
scalar MyScenario.node[196].appl 	generatedWSAs 	0
scalar MyScenario.node[196].appl 	receivedWSAs 	0
scalar MyScenario.node[196].nic.phy80211p 	busyTime 	0.0014651094890511
scalar MyScenario.node[196].nic.mac1609_4 	ReceivedUnicastPackets 	0
scalar MyScenario.node[196].nic.mac1609_4 	ReceivedBroadcasts 	193
scalar MyScenario.node[196].nic.mac1609_4 	SentPackets 	14
scalar MyScenario.node[196].nic.mac1609_4 	SNIRLostPackets 	0
scalar MyScenario.node[196].nic.mac1609_4 	RXTXLostPackets 	0
scalar MyScenario.node[196].nic.mac1609_4 	TotalLostPackets 	0
scalar MyScenario.node[196].nic.mac1609_4 	DroppedPacketsInMac 	0
scalar MyScenario.node[196].nic.mac1609_4 	TooLittleTime 	0
scalar MyScenario.node[196].nic.mac1609_4 	TimesIntoBackoff 	14
scalar MyScenario.node[196].nic.mac1609_4 	SlotsBackoff 	22
scalar MyScenario.node[196].nic.mac1609_4 	NumInternalContention 	0
scalar MyScenario.node[196].nic.mac1609_4 	totalBusyTime 	0.021542
scalar MyScenario.node[196].veinsmobility 	startTime 	25200
scalar MyScenario.node[196].veinsmobility 	totalTime 	13.6
scalar MyScenario.node[196].veinsmobility 	stopTime 	25213.7
scalar MyScenario.node[196].veinsmobility 	minSpeed 	4.7584130572177e-14
scalar MyScenario.node[196].veinsmobility 	maxSpeed 	11.550499104031
scalar MyScenario.node[196].veinsmobility 	totalDistance 	109.66520763397
scalar MyScenario.node[196].veinsmobility 	totalCO2Emission 	44.271170596641
scalar MyScenario.node[14].appl 	generatedWSMs 	0
scalar MyScenario.node[14].appl 	receivedWSMs 	0
scalar MyScenario.node[14].appl 	generatedBSMs 	15
scalar MyScenario.node[14].appl 	receivedBSMs 	503
scalar MyScenario.node[14].appl 	generatedWSAs 	0
scalar MyScenario.node[14].appl 	receivedWSAs 	0
scalar MyScenario.node[14].nic.phy80211p 	busyTime 	0.0036839436619718
scalar MyScenario.node[14].nic.mac1609_4 	ReceivedUnicastPackets 	0
scalar MyScenario.node[14].nic.mac1609_4 	ReceivedBroadcasts 	503
scalar MyScenario.node[14].nic.mac1609_4 	SentPackets 	15
scalar MyScenario.node[14].nic.mac1609_4 	SNIRLostPackets 	0
scalar MyScenario.node[14].nic.mac1609_4 	RXTXLostPackets 	0
scalar MyScenario.node[14].nic.mac1609_4 	TotalLostPackets 	0
scalar MyScenario.node[14].nic.mac1609_4 	DroppedPacketsInMac 	0
scalar MyScenario.node[14].nic.mac1609_4 	TooLittleTime 	0
scalar MyScenario.node[14].nic.mac1609_4 	TimesIntoBackoff 	15
scalar MyScenario.node[14].nic.mac1609_4 	SlotsBackoff 	19
scalar MyScenario.node[14].nic.mac1609_4 	NumInternalContention 	0
scalar MyScenario.node[14].nic.mac1609_4 	totalBusyTime 	0.053887
scalar MyScenario.node[14].veinsmobility 	startTime 	25200
scalar MyScenario.node[14].veinsmobility 	totalTime 	14.1
scalar MyScenario.node[14].veinsmobility 	stopTime 	25214.2
scalar MyScenario.node[14].veinsmobility 	minSpeed 	31.72119675137
scalar MyScenario.node[14].veinsmobility 	maxSpeed 	31.84984829614
scalar MyScenario.node[14].veinsmobility 	totalDistance 	448.60193809058
scalar MyScenario.node[14].veinsmobility 	totalCO2Emission 	80.24698253174
scalar MyScenario.node[93].appl 	generatedWSMs 	0
scalar MyScenario.node[93].appl 	receivedWSMs 	0
scalar MyScenario.node[93].appl 	generatedBSMs 	14
scalar MyScenario.node[93].appl 	receivedBSMs 	390
scalar MyScenario.node[93].appl 	generatedWSAs 	0
scalar MyScenario.node[93].appl 	receivedWSAs 	0
scalar MyScenario.node[93].nic.phy80211p 	busyTime 	0.002856338028169
scalar MyScenario.node[93].nic.mac1609_4 	ReceivedUnicastPackets 	0
scalar MyScenario.node[93].nic.mac1609_4 	ReceivedBroadcasts 	390
scalar MyScenario.node[93].nic.mac1609_4 	SentPackets 	14
scalar MyScenario.node[93].nic.mac1609_4 	SNIRLostPackets 	0
scalar MyScenario.node[93].nic.mac1609_4 	RXTXLostPackets 	0
scalar MyScenario.node[93].nic.mac1609_4 	TotalLostPackets 	0
scalar MyScenario.node[93].nic.mac1609_4 	DroppedPacketsInMac 	0
scalar MyScenario.node[93].nic.mac1609_4 	TooLittleTime 	0
scalar MyScenario.node[93].nic.mac1609_4 	TimesIntoBackoff 	14
scalar MyScenario.node[93].nic.mac1609_4 	SlotsBackoff 	11
scalar MyScenario.node[93].nic.mac1609_4 	NumInternalContention 	0
scalar MyScenario.node[93].nic.mac1609_4 	totalBusyTime 	0.04203
scalar MyScenario.node[93].veinsmobility 	startTime 	25200
scalar MyScenario.node[93].veinsmobility 	totalTime 	14.1
scalar MyScenario.node[93].veinsmobility 	stopTime 	25214.2
scalar MyScenario.node[93].veinsmobility 	minSpeed 	32.050668801821
scalar MyScenario.node[93].veinsmobility 	maxSpeed 	32.669196200494
scalar MyScenario.node[93].veinsmobility 	totalDistance 	455.05481045939
scalar MyScenario.node[93].veinsmobility 	totalCO2Emission 	89.053515211716
scalar MyScenario.node[164].appl 	generatedWSMs 	0
scalar MyScenario.node[164].appl 	receivedWSMs 	0
scalar MyScenario.node[164].appl 	generatedBSMs 	14
scalar MyScenario.node[164].appl 	receivedBSMs 	174
scalar MyScenario.node[164].appl 	generatedWSAs 	0
scalar MyScenario.node[164].appl 	receivedWSAs 	0
scalar MyScenario.node[164].nic.phy80211p 	busyTime 	0.0012743661971831
scalar MyScenario.node[164].nic.mac1609_4 	ReceivedUnicastPackets 	0
scalar MyScenario.node[164].nic.mac1609_4 	ReceivedBroadcasts 	174
scalar MyScenario.node[164].nic.mac1609_4 	SentPackets 	14
scalar MyScenario.node[164].nic.mac1609_4 	SNIRLostPackets 	0
scalar MyScenario.node[164].nic.mac1609_4 	RXTXLostPackets 	0
scalar MyScenario.node[164].nic.mac1609_4 	TotalLostPackets 	0
scalar MyScenario.node[164].nic.mac1609_4 	DroppedPacketsInMac 	0
scalar MyScenario.node[164].nic.mac1609_4 	TooLittleTime 	0
scalar MyScenario.node[164].nic.mac1609_4 	TimesIntoBackoff 	14
scalar MyScenario.node[164].nic.mac1609_4 	SlotsBackoff 	16
scalar MyScenario.node[164].nic.mac1609_4 	NumInternalContention 	0
scalar MyScenario.node[164].nic.mac1609_4 	totalBusyTime 	0.019566
scalar MyScenario.node[164].veinsmobility 	startTime 	25200
scalar MyScenario.node[164].veinsmobility 	totalTime 	14.1
scalar MyScenario.node[164].veinsmobility 	stopTime 	25214.2
scalar MyScenario.node[164].veinsmobility 	minSpeed 	0
scalar MyScenario.node[164].veinsmobility 	maxSpeed 	14.802230681987
scalar MyScenario.node[164].veinsmobility 	totalDistance 	82.379125038516
scalar MyScenario.node[164].veinsmobility 	totalCO2Emission 	47.609014980757
scalar MyScenario.node[127].appl 	generatedWSMs 	0
scalar MyScenario.node[127].appl 	receivedWSMs 	0
scalar MyScenario.node[127].appl 	generatedBSMs 	15
scalar MyScenario.node[127].appl 	receivedBSMs 	216
scalar MyScenario.node[127].appl 	generatedWSAs 	0
scalar MyScenario.node[127].appl 	receivedWSAs 	0
scalar MyScenario.node[127].nic.phy80211p 	busyTime 	0.0015178378378378
scalar MyScenario.node[127].nic.mac1609_4 	ReceivedUnicastPackets 	0
scalar MyScenario.node[127].nic.mac1609_4 	ReceivedBroadcasts 	216
scalar MyScenario.node[127].nic.mac1609_4 	SentPackets 	15
scalar MyScenario.node[127].nic.mac1609_4 	SNIRLostPackets 	0
scalar MyScenario.node[127].nic.mac1609_4 	RXTXLostPackets 	0
scalar MyScenario.node[127].nic.mac1609_4 	TotalLostPackets 	0
scalar MyScenario.node[127].nic.mac1609_4 	DroppedPacketsInMac 	0
scalar MyScenario.node[127].nic.mac1609_4 	TooLittleTime 	0
scalar MyScenario.node[127].nic.mac1609_4 	TimesIntoBackoff 	15
scalar MyScenario.node[127].nic.mac1609_4 	SlotsBackoff 	23
scalar MyScenario.node[127].nic.mac1609_4 	NumInternalContention 	0
scalar MyScenario.node[127].nic.mac1609_4 	totalBusyTime 	0.024039
scalar MyScenario.node[127].veinsmobility 	startTime 	25200
scalar MyScenario.node[127].veinsmobility 	totalTime 	14.7
scalar MyScenario.node[127].veinsmobility 	stopTime 	25214.8
scalar MyScenario.node[127].veinsmobility 	minSpeed 	4.6893569479063e-14
scalar MyScenario.node[127].veinsmobility 	maxSpeed 	14.706021329083
scalar MyScenario.node[127].veinsmobility 	totalDistance 	136.83904090642
scalar MyScenario.node[127].veinsmobility 	totalCO2Emission 	52.144304304446
scalar MyScenario.node[65].appl 	generatedWSMs 	0
scalar MyScenario.node[65].appl 	receivedWSMs 	0
scalar MyScenario.node[65].appl 	generatedBSMs 	15
scalar MyScenario.node[65].appl 	receivedBSMs 	84
scalar MyScenario.node[65].appl 	generatedWSAs 	0
scalar MyScenario.node[65].appl 	receivedWSAs 	0
scalar MyScenario.node[65].nic.phy80211p 	busyTime 	0.00057473684210526
scalar MyScenario.node[65].nic.mac1609_4 	ReceivedUnicastPackets 	0
scalar MyScenario.node[65].nic.mac1609_4 	ReceivedBroadcasts 	84
scalar MyScenario.node[65].nic.mac1609_4 	SentPackets 	15
scalar MyScenario.node[65].nic.mac1609_4 	SNIRLostPackets 	0
scalar MyScenario.node[65].nic.mac1609_4 	RXTXLostPackets 	0
scalar MyScenario.node[65].nic.mac1609_4 	TotalLostPackets 	0
scalar MyScenario.node[65].nic.mac1609_4 	DroppedPacketsInMac 	0
scalar MyScenario.node[65].nic.mac1609_4 	TooLittleTime 	0
scalar MyScenario.node[65].nic.mac1609_4 	TimesIntoBackoff 	15
scalar MyScenario.node[65].nic.mac1609_4 	SlotsBackoff 	25
scalar MyScenario.node[65].nic.mac1609_4 	NumInternalContention 	0
scalar MyScenario.node[65].nic.mac1609_4 	totalBusyTime 	0.010311
scalar MyScenario.node[65].veinsmobility 	startTime 	25200
scalar MyScenario.node[65].veinsmobility 	totalTime 	15.1
scalar MyScenario.node[65].veinsmobility 	stopTime 	25215.2
scalar MyScenario.node[65].veinsmobility 	minSpeed 	3.3180762484729
scalar MyScenario.node[65].veinsmobility 	maxSpeed 	13.189110218227
scalar MyScenario.node[65].veinsmobility 	totalDistance 	168.29230670522
scalar MyScenario.node[65].veinsmobility 	totalCO2Emission 	32.514121079347
scalar MyScenario.node[94].appl 	generatedWSMs 	0
scalar MyScenario.node[94].appl 	receivedWSMs 	0
scalar MyScenario.node[94].appl 	generatedBSMs 	15
scalar MyScenario.node[94].appl 	receivedBSMs 	125
scalar MyScenario.node[94].appl 	generatedWSAs 	0
scalar MyScenario.node[94].appl 	receivedWSAs 	0
scalar MyScenario.node[94].nic.phy80211p 	busyTime 	0.00084967320261438
scalar MyScenario.node[94].nic.mac1609_4 	ReceivedUnicastPackets 	0
scalar MyScenario.node[94].nic.mac1609_4 	ReceivedBroadcasts 	125
scalar MyScenario.node[94].nic.mac1609_4 	SentPackets 	15
scalar MyScenario.node[94].nic.mac1609_4 	SNIRLostPackets 	0
scalar MyScenario.node[94].nic.mac1609_4 	RXTXLostPackets 	0
scalar MyScenario.node[94].nic.mac1609_4 	TotalLostPackets 	0
scalar MyScenario.node[94].nic.mac1609_4 	DroppedPacketsInMac 	0
scalar MyScenario.node[94].nic.mac1609_4 	TooLittleTime 	0
scalar MyScenario.node[94].nic.mac1609_4 	TimesIntoBackoff 	15
scalar MyScenario.node[94].nic.mac1609_4 	SlotsBackoff 	22
scalar MyScenario.node[94].nic.mac1609_4 	NumInternalContention 	0
scalar MyScenario.node[94].nic.mac1609_4 	totalBusyTime 	0.014575
scalar MyScenario.node[94].veinsmobility 	startTime 	25200
scalar MyScenario.node[94].veinsmobility 	totalTime 	15.2
scalar MyScenario.node[94].veinsmobility 	stopTime 	25215.3
scalar MyScenario.node[94].veinsmobility 	minSpeed 	26.920434995723
scalar MyScenario.node[94].veinsmobility 	maxSpeed 	27.059101781869
scalar MyScenario.node[94].veinsmobility 	totalDistance 	410.22342356355
scalar MyScenario.node[94].veinsmobility 	totalCO2Emission 	68.387093941841
scalar MyScenario.node[13].appl 	generatedWSMs 	0
scalar MyScenario.node[13].appl 	receivedWSMs 	0
scalar MyScenario.node[13].appl 	generatedBSMs 	16
scalar MyScenario.node[13].appl 	receivedBSMs 	559
scalar MyScenario.node[13].appl 	generatedWSAs 	0
scalar MyScenario.node[13].appl 	receivedWSAs 	0
scalar MyScenario.node[13].nic.phy80211p 	busyTime 	0.0037750649350649
scalar MyScenario.node[13].nic.mac1609_4 	ReceivedUnicastPackets 	0
scalar MyScenario.node[13].nic.mac1609_4 	ReceivedBroadcasts 	559
scalar MyScenario.node[13].nic.mac1609_4 	SentPackets 	16
scalar MyScenario.node[13].nic.mac1609_4 	SNIRLostPackets 	0
scalar MyScenario.node[13].nic.mac1609_4 	RXTXLostPackets 	0
scalar MyScenario.node[13].nic.mac1609_4 	TotalLostPackets 	0
scalar MyScenario.node[13].nic.mac1609_4 	DroppedPacketsInMac 	0
scalar MyScenario.node[13].nic.mac1609_4 	TooLittleTime 	0
scalar MyScenario.node[13].nic.mac1609_4 	TimesIntoBackoff 	16
scalar MyScenario.node[13].nic.mac1609_4 	SlotsBackoff 	22
scalar MyScenario.node[13].nic.mac1609_4 	NumInternalContention 	0
scalar MyScenario.node[13].nic.mac1609_4 	totalBusyTime 	0.059816
scalar MyScenario.node[13].veinsmobility 	startTime 	25200
scalar MyScenario.node[13].veinsmobility 	totalTime 	15.3
scalar MyScenario.node[13].veinsmobility 	stopTime 	25215.4
scalar MyScenario.node[13].veinsmobility 	minSpeed 	31.674979392917
[...]
scalar MyScenario.node[495].nic.mac1609_4 	SlotsBackoff 	12
scalar MyScenario.node[495].nic.mac1609_4 	NumInternalContention 	0
scalar MyScenario.node[495].nic.mac1609_4 	totalBusyTime 	0.011343
scalar MyScenario.node[495].veinsmobility 	startTime 	25292.5
scalar MyScenario.node[495].veinsmobility 	totalTime 	7.5
scalar MyScenario.node[495].veinsmobility 	stopTime 	25300
scalar MyScenario.node[495].veinsmobility 	minSpeed 	13.149867985783
scalar MyScenario.node[495].veinsmobility 	maxSpeed 	13.281520863836
scalar MyScenario.node[495].veinsmobility 	totalDistance 	99.079619881364
scalar MyScenario.node[495].veinsmobility 	totalCO2Emission 	17.351576589267
scalar MyScenario.node[311].appl 	generatedWSMs 	0
scalar MyScenario.node[311].appl 	receivedWSMs 	0
scalar MyScenario.node[311].appl 	generatedBSMs 	73
scalar MyScenario.node[311].appl 	receivedBSMs 	719
scalar MyScenario.node[311].appl 	generatedWSAs 	0
scalar MyScenario.node[311].appl 	receivedWSAs 	0
scalar MyScenario.node[311].nic.phy80211p 	busyTime 	0.0010257338820302
scalar MyScenario.node[311].nic.mac1609_4 	ReceivedUnicastPackets 	0
scalar MyScenario.node[311].nic.mac1609_4 	ReceivedBroadcasts 	719
scalar MyScenario.node[311].nic.mac1609_4 	SentPackets 	73
scalar MyScenario.node[311].nic.mac1609_4 	SNIRLostPackets 	0
scalar MyScenario.node[311].nic.mac1609_4 	RXTXLostPackets 	0
scalar MyScenario.node[311].nic.mac1609_4 	TotalLostPackets 	0
scalar MyScenario.node[311].nic.mac1609_4 	DroppedPacketsInMac 	0
scalar MyScenario.node[311].nic.mac1609_4 	TooLittleTime 	0
scalar MyScenario.node[311].nic.mac1609_4 	TimesIntoBackoff 	73
scalar MyScenario.node[311].nic.mac1609_4 	SlotsBackoff 	98
scalar MyScenario.node[311].nic.mac1609_4 	NumInternalContention 	0
scalar MyScenario.node[311].nic.mac1609_4 	totalBusyTime 	0.082441
scalar MyScenario.node[311].veinsmobility 	startTime 	25227.1
scalar MyScenario.node[311].veinsmobility 	totalTime 	72.9
scalar MyScenario.node[311].veinsmobility 	stopTime 	25300
scalar MyScenario.node[311].veinsmobility 	minSpeed 	0.29387227514642
scalar MyScenario.node[311].veinsmobility 	maxSpeed 	16.414640005767
scalar MyScenario.node[311].veinsmobility 	totalDistance 	852.04554883036
scalar MyScenario.node[311].veinsmobility 	totalCO2Emission 	240.71505239898
scalar MyScenario.node[308].appl 	generatedWSMs 	0
scalar MyScenario.node[308].appl 	receivedWSMs 	0
scalar MyScenario.node[308].appl 	generatedBSMs 	74
scalar MyScenario.node[308].appl 	receivedBSMs 	710
scalar MyScenario.node[308].appl 	generatedWSAs 	0
scalar MyScenario.node[308].appl 	receivedWSAs 	0
scalar MyScenario.node[308].nic.phy80211p 	busyTime 	0.00099918809201625
scalar MyScenario.node[308].nic.mac1609_4 	ReceivedUnicastPackets 	0
scalar MyScenario.node[308].nic.mac1609_4 	ReceivedBroadcasts 	710
scalar MyScenario.node[308].nic.mac1609_4 	SentPackets 	74
scalar MyScenario.node[308].nic.mac1609_4 	SNIRLostPackets 	0
scalar MyScenario.node[308].nic.mac1609_4 	RXTXLostPackets 	0
scalar MyScenario.node[308].nic.mac1609_4 	TotalLostPackets 	0
scalar MyScenario.node[308].nic.mac1609_4 	DroppedPacketsInMac 	0
scalar MyScenario.node[308].nic.mac1609_4 	TooLittleTime 	0
scalar MyScenario.node[308].nic.mac1609_4 	TimesIntoBackoff 	74
scalar MyScenario.node[308].nic.mac1609_4 	SlotsBackoff 	124
scalar MyScenario.node[308].nic.mac1609_4 	NumInternalContention 	0
scalar MyScenario.node[308].nic.mac1609_4 	totalBusyTime 	0.08161
scalar MyScenario.node[308].veinsmobility 	startTime 	25226.1
scalar MyScenario.node[308].veinsmobility 	totalTime 	73.9
scalar MyScenario.node[308].veinsmobility 	stopTime 	25300
scalar MyScenario.node[308].veinsmobility 	minSpeed 	0.27819114514254
scalar MyScenario.node[308].veinsmobility 	maxSpeed 	15.976155155958
scalar MyScenario.node[308].veinsmobility 	totalDistance 	801.63791918761
scalar MyScenario.node[308].veinsmobility 	totalCO2Emission 	236.42311838979
scalar MyScenario.node[437].appl 	generatedWSMs 	0
scalar MyScenario.node[437].appl 	receivedWSMs 	0
scalar MyScenario.node[437].appl 	generatedBSMs 	27
scalar MyScenario.node[437].appl 	receivedBSMs 	150
scalar MyScenario.node[437].appl 	generatedWSAs 	0
scalar MyScenario.node[437].appl 	receivedWSAs 	0
scalar MyScenario.node[437].nic.phy80211p 	busyTime 	0.00057142857142857
scalar MyScenario.node[437].nic.mac1609_4 	ReceivedUnicastPackets 	0
scalar MyScenario.node[437].nic.mac1609_4 	ReceivedBroadcasts 	150
scalar MyScenario.node[437].nic.mac1609_4 	SentPackets 	27
scalar MyScenario.node[437].nic.mac1609_4 	SNIRLostPackets 	0
scalar MyScenario.node[437].nic.mac1609_4 	RXTXLostPackets 	0
scalar MyScenario.node[437].nic.mac1609_4 	TotalLostPackets 	0
scalar MyScenario.node[437].nic.mac1609_4 	DroppedPacketsInMac 	0
scalar MyScenario.node[437].nic.mac1609_4 	TooLittleTime 	0
scalar MyScenario.node[437].nic.mac1609_4 	TimesIntoBackoff 	27
scalar MyScenario.node[437].nic.mac1609_4 	SlotsBackoff 	29
scalar MyScenario.node[437].nic.mac1609_4 	NumInternalContention 	0
scalar MyScenario.node[437].nic.mac1609_4 	totalBusyTime 	0.018435
scalar MyScenario.node[437].veinsmobility 	startTime 	25272.7
scalar MyScenario.node[437].veinsmobility 	totalTime 	27.3
scalar MyScenario.node[437].veinsmobility 	stopTime 	25300
scalar MyScenario.node[437].veinsmobility 	minSpeed 	3.3520583771056
scalar MyScenario.node[437].veinsmobility 	maxSpeed 	13.980354682334
scalar MyScenario.node[437].veinsmobility 	totalDistance 	273.32564882541
scalar MyScenario.node[437].veinsmobility 	totalCO2Emission 	101.98735162256
scalar MyScenario.node[252].appl 	generatedWSMs 	0
scalar MyScenario.node[252].appl 	receivedWSMs 	0
scalar MyScenario.node[252].appl 	generatedBSMs 	91
scalar MyScenario.node[252].appl 	receivedBSMs 	1674
scalar MyScenario.node[252].appl 	generatedWSAs 	0
scalar MyScenario.node[252].appl 	receivedWSAs 	0
scalar MyScenario.node[252].nic.phy80211p 	busyTime 	0.0019121844127332
scalar MyScenario.node[252].nic.mac1609_4 	ReceivedUnicastPackets 	0
scalar MyScenario.node[252].nic.mac1609_4 	ReceivedBroadcasts 	1674
scalar MyScenario.node[252].nic.mac1609_4 	SentPackets 	91
scalar MyScenario.node[252].nic.mac1609_4 	SNIRLostPackets 	1
scalar MyScenario.node[252].nic.mac1609_4 	RXTXLostPackets 	0
scalar MyScenario.node[252].nic.mac1609_4 	TotalLostPackets 	1
scalar MyScenario.node[252].nic.mac1609_4 	DroppedPacketsInMac 	0
scalar MyScenario.node[252].nic.mac1609_4 	TooLittleTime 	0
scalar MyScenario.node[252].nic.mac1609_4 	TimesIntoBackoff 	91
scalar MyScenario.node[252].nic.mac1609_4 	SlotsBackoff 	156
scalar MyScenario.node[252].nic.mac1609_4 	NumInternalContention 	0
scalar MyScenario.node[252].nic.mac1609_4 	totalBusyTime 	0.183755
scalar MyScenario.node[252].veinsmobility 	startTime 	25208.9
scalar MyScenario.node[252].veinsmobility 	totalTime 	91.1
scalar MyScenario.node[252].veinsmobility 	stopTime 	25300
scalar MyScenario.node[252].veinsmobility 	minSpeed 	13.127872747828
scalar MyScenario.node[252].veinsmobility 	maxSpeed 	31.036370372769
scalar MyScenario.node[252].veinsmobility 	totalDistance 	1752.0997445367
scalar MyScenario.node[252].veinsmobility 	totalCO2Emission 	329.69259016479
scalar MyScenario.node[430].appl 	generatedWSMs 	0
scalar MyScenario.node[430].appl 	receivedWSMs 	0
scalar MyScenario.node[430].appl 	generatedBSMs 	30
scalar MyScenario.node[430].appl 	receivedBSMs 	884
scalar MyScenario.node[430].appl 	generatedWSAs 	0
scalar MyScenario.node[430].appl 	receivedWSAs 	0
scalar MyScenario.node[430].nic.phy80211p 	busyTime 	0.0030991304347827
scalar MyScenario.node[430].nic.mac1609_4 	ReceivedUnicastPackets 	0
scalar MyScenario.node[430].nic.mac1609_4 	ReceivedBroadcasts 	884
scalar MyScenario.node[430].nic.mac1609_4 	SentPackets 	30
scalar MyScenario.node[430].nic.mac1609_4 	SNIRLostPackets 	7
scalar MyScenario.node[430].nic.mac1609_4 	RXTXLostPackets 	0
scalar MyScenario.node[430].nic.mac1609_4 	TotalLostPackets 	7
scalar MyScenario.node[430].nic.mac1609_4 	DroppedPacketsInMac 	0
scalar MyScenario.node[430].nic.mac1609_4 	TooLittleTime 	0
scalar MyScenario.node[430].nic.mac1609_4 	TimesIntoBackoff 	30
scalar MyScenario.node[430].nic.mac1609_4 	SlotsBackoff 	42
scalar MyScenario.node[430].nic.mac1609_4 	NumInternalContention 	0
scalar MyScenario.node[430].nic.mac1609_4 	totalBusyTime 	0.095398
scalar MyScenario.node[430].veinsmobility 	startTime 	25270.1
scalar MyScenario.node[430].veinsmobility 	totalTime 	29.9
scalar MyScenario.node[430].veinsmobility 	stopTime 	25300
scalar MyScenario.node[430].veinsmobility 	minSpeed 	28.978420938579
scalar MyScenario.node[430].veinsmobility 	maxSpeed 	29.111846865757
scalar MyScenario.node[430].veinsmobility 	totalDistance 	868.47358393661
scalar MyScenario.node[430].veinsmobility 	totalCO2Emission 	149.30100242649
scalar MyScenario.node[216].appl 	generatedWSMs 	0
scalar MyScenario.node[216].appl 	receivedWSMs 	0
scalar MyScenario.node[216].appl 	generatedBSMs 	100
scalar MyScenario.node[216].appl 	receivedBSMs 	2650
scalar MyScenario.node[216].appl 	generatedWSAs 	0
scalar MyScenario.node[216].appl 	receivedWSAs 	0
scalar MyScenario.node[216].nic.phy80211p 	busyTime 	0.0027601599999999
scalar MyScenario.node[216].nic.mac1609_4 	ReceivedUnicastPackets 	0
scalar MyScenario.node[216].nic.mac1609_4 	ReceivedBroadcasts 	2650
scalar MyScenario.node[216].nic.mac1609_4 	SentPackets 	100
scalar MyScenario.node[216].nic.mac1609_4 	SNIRLostPackets 	4
scalar MyScenario.node[216].nic.mac1609_4 	RXTXLostPackets 	0
scalar MyScenario.node[216].nic.mac1609_4 	TotalLostPackets 	4
scalar MyScenario.node[216].nic.mac1609_4 	DroppedPacketsInMac 	0
scalar MyScenario.node[216].nic.mac1609_4 	TooLittleTime 	0
scalar MyScenario.node[216].nic.mac1609_4 	TimesIntoBackoff 	100
scalar MyScenario.node[216].nic.mac1609_4 	SlotsBackoff 	152
scalar MyScenario.node[216].nic.mac1609_4 	NumInternalContention 	0
scalar MyScenario.node[216].nic.mac1609_4 	totalBusyTime 	0.286308
scalar MyScenario.node[216].veinsmobility 	startTime 	25200
scalar MyScenario.node[216].veinsmobility 	totalTime 	100
scalar MyScenario.node[216].veinsmobility 	stopTime 	25300
scalar MyScenario.node[216].veinsmobility 	minSpeed 	0
scalar MyScenario.node[216].veinsmobility 	maxSpeed 	12.242356731056
scalar MyScenario.node[216].veinsmobility 	totalDistance 	642.87555893862
scalar MyScenario.node[216].veinsmobility 	totalCO2Emission 	198.74289890722
scalar MyScenario.node[217].appl 	generatedWSMs 	0
scalar MyScenario.node[217].appl 	receivedWSMs 	0
scalar MyScenario.node[217].appl 	generatedBSMs 	100
scalar MyScenario.node[217].appl 	receivedBSMs 	1959
scalar MyScenario.node[217].appl 	generatedWSAs 	0
scalar MyScenario.node[217].appl 	receivedWSAs 	0
scalar MyScenario.node[217].nic.phy80211p 	busyTime 	0.00203736
scalar MyScenario.node[217].nic.mac1609_4 	ReceivedUnicastPackets 	0
scalar MyScenario.node[217].nic.mac1609_4 	ReceivedBroadcasts 	1959
scalar MyScenario.node[217].nic.mac1609_4 	SentPackets 	100
scalar MyScenario.node[217].nic.mac1609_4 	SNIRLostPackets 	0
scalar MyScenario.node[217].nic.mac1609_4 	RXTXLostPackets 	0
scalar MyScenario.node[217].nic.mac1609_4 	TotalLostPackets 	0
scalar MyScenario.node[217].nic.mac1609_4 	DroppedPacketsInMac 	0
scalar MyScenario.node[217].nic.mac1609_4 	TooLittleTime 	0
scalar MyScenario.node[217].nic.mac1609_4 	TimesIntoBackoff 	100
scalar MyScenario.node[217].nic.mac1609_4 	SlotsBackoff 	145
scalar MyScenario.node[217].nic.mac1609_4 	NumInternalContention 	0
scalar MyScenario.node[217].nic.mac1609_4 	totalBusyTime 	0.214236
scalar MyScenario.node[217].veinsmobility 	startTime 	25200
scalar MyScenario.node[217].veinsmobility 	totalTime 	100
scalar MyScenario.node[217].veinsmobility 	stopTime 	25300
scalar MyScenario.node[217].veinsmobility 	minSpeed 	0
scalar MyScenario.node[217].veinsmobility 	maxSpeed 	11.968115032061
scalar MyScenario.node[217].veinsmobility 	totalDistance 	664.57265654558
scalar MyScenario.node[217].veinsmobility 	totalCO2Emission 	197.94556014133
scalar MyScenario.node[510].appl 	generatedWSMs 	0
scalar MyScenario.node[510].appl 	receivedWSMs 	0
scalar MyScenario.node[510].appl 	generatedBSMs 	3
scalar MyScenario.node[510].appl 	receivedBSMs 	107
scalar MyScenario.node[510].appl 	generatedWSAs 	0
scalar MyScenario.node[510].appl 	receivedWSAs 	0
scalar MyScenario.node[510].nic.phy80211p 	busyTime 	0.0044512
scalar MyScenario.node[510].nic.mac1609_4 	ReceivedUnicastPackets 	0
scalar MyScenario.node[510].nic.mac1609_4 	ReceivedBroadcasts 	107
scalar MyScenario.node[510].nic.mac1609_4 	SentPackets 	3
scalar MyScenario.node[510].nic.mac1609_4 	SNIRLostPackets 	0
scalar MyScenario.node[510].nic.mac1609_4 	RXTXLostPackets 	0
scalar MyScenario.node[510].nic.mac1609_4 	TotalLostPackets 	0
scalar MyScenario.node[510].nic.mac1609_4 	DroppedPacketsInMac 	0
scalar MyScenario.node[510].nic.mac1609_4 	TooLittleTime 	0
scalar MyScenario.node[510].nic.mac1609_4 	TimesIntoBackoff 	3
scalar MyScenario.node[510].nic.mac1609_4 	SlotsBackoff 	3
scalar MyScenario.node[510].nic.mac1609_4 	NumInternalContention 	0
scalar MyScenario.node[510].nic.mac1609_4 	totalBusyTime 	0.011443
scalar MyScenario.node[510].veinsmobility 	startTime 	25297.5
scalar MyScenario.node[510].veinsmobility 	totalTime 	2.5
scalar MyScenario.node[510].veinsmobility 	stopTime 	25300
scalar MyScenario.node[510].veinsmobility 	minSpeed 	29.763968593166
scalar MyScenario.node[510].veinsmobility 	maxSpeed 	34.633647637679
scalar MyScenario.node[510].veinsmobility 	totalDistance 	80.625340665148
scalar MyScenario.node[510].veinsmobility 	totalCO2Emission 	51.87344996658
scalar MyScenario.node[366].appl 	generatedWSMs 	0
scalar MyScenario.node[366].appl 	receivedWSMs 	0
scalar MyScenario.node[366].appl 	generatedBSMs 	52
scalar MyScenario.node[366].appl 	receivedBSMs 	1840
scalar MyScenario.node[366].appl 	generatedWSAs 	0
scalar MyScenario.node[366].appl 	receivedWSAs 	0
scalar MyScenario.node[366].nic.phy80211p 	busyTime 	0.0037151445086705
scalar MyScenario.node[366].nic.mac1609_4 	ReceivedUnicastPackets 	0
scalar MyScenario.node[366].nic.mac1609_4 	ReceivedBroadcasts 	1840
scalar MyScenario.node[366].nic.mac1609_4 	SentPackets 	52
scalar MyScenario.node[366].nic.mac1609_4 	SNIRLostPackets 	14
scalar MyScenario.node[366].nic.mac1609_4 	RXTXLostPackets 	0
scalar MyScenario.node[366].nic.mac1609_4 	TotalLostPackets 	14
scalar MyScenario.node[366].nic.mac1609_4 	DroppedPacketsInMac 	0
scalar MyScenario.node[366].nic.mac1609_4 	TooLittleTime 	0
scalar MyScenario.node[366].nic.mac1609_4 	TimesIntoBackoff 	52
scalar MyScenario.node[366].nic.mac1609_4 	SlotsBackoff 	86
scalar MyScenario.node[366].nic.mac1609_4 	NumInternalContention 	0
scalar MyScenario.node[366].nic.mac1609_4 	totalBusyTime 	0.197548
scalar MyScenario.node[366].veinsmobility 	startTime 	25248.1
scalar MyScenario.node[366].veinsmobility 	totalTime 	51.9
scalar MyScenario.node[366].veinsmobility 	stopTime 	25300
scalar MyScenario.node[366].veinsmobility 	minSpeed 	0
scalar MyScenario.node[366].veinsmobility 	maxSpeed 	15.065148931153
scalar MyScenario.node[366].veinsmobility 	totalDistance 	382.67802929349
scalar MyScenario.node[366].veinsmobility 	totalCO2Emission 	112.08457742333
scalar MyScenario.node[219].appl 	generatedWSMs 	0
scalar MyScenario.node[219].appl 	receivedWSMs 	0
scalar MyScenario.node[219].appl 	generatedBSMs 	100
scalar MyScenario.node[219].appl 	receivedBSMs 	1800
scalar MyScenario.node[219].appl 	generatedWSAs 	0
scalar MyScenario.node[219].appl 	receivedWSAs 	0
scalar MyScenario.node[219].nic.phy80211p 	busyTime 	0.00187408
scalar MyScenario.node[219].nic.mac1609_4 	ReceivedUnicastPackets 	0
scalar MyScenario.node[219].nic.mac1609_4 	ReceivedBroadcasts 	1800
scalar MyScenario.node[219].nic.mac1609_4 	SentPackets 	100
scalar MyScenario.node[219].nic.mac1609_4 	SNIRLostPackets 	2
scalar MyScenario.node[219].nic.mac1609_4 	RXTXLostPackets 	5
scalar MyScenario.node[219].nic.mac1609_4 	TotalLostPackets 	7
scalar MyScenario.node[219].nic.mac1609_4 	DroppedPacketsInMac 	0
scalar MyScenario.node[219].nic.mac1609_4 	TooLittleTime 	0
scalar MyScenario.node[219].nic.mac1609_4 	TimesIntoBackoff 	100
scalar MyScenario.node[219].nic.mac1609_4 	SlotsBackoff 	162
scalar MyScenario.node[219].nic.mac1609_4 	NumInternalContention 	0
scalar MyScenario.node[219].nic.mac1609_4 	totalBusyTime 	0.197804
scalar MyScenario.node[219].veinsmobility 	startTime 	25200
scalar MyScenario.node[219].veinsmobility 	totalTime 	100
scalar MyScenario.node[219].veinsmobility 	stopTime 	25300
scalar MyScenario.node[219].veinsmobility 	minSpeed 	3.2868122400742
scalar MyScenario.node[219].veinsmobility 	maxSpeed 	15.065177220255
scalar MyScenario.node[219].veinsmobility 	totalDistance 	1280.417260239
scalar MyScenario.node[219].veinsmobility 	totalCO2Emission 	262.20360369489
scalar MyScenario.node[461].appl 	generatedWSMs 	0
scalar MyScenario.node[461].appl 	receivedWSMs 	0
scalar MyScenario.node[461].appl 	generatedBSMs 	18
scalar MyScenario.node[461].appl 	receivedBSMs 	162
scalar MyScenario.node[461].appl 	generatedWSAs 	0
scalar MyScenario.node[461].appl 	receivedWSAs 	0
scalar MyScenario.node[461].nic.phy80211p 	busyTime 	0.00096274285714286
scalar MyScenario.node[461].nic.mac1609_4 	ReceivedUnicastPackets 	0
scalar MyScenario.node[461].nic.mac1609_4 	ReceivedBroadcasts 	162
scalar MyScenario.node[461].nic.mac1609_4 	SentPackets 	18
scalar MyScenario.node[461].nic.mac1609_4 	SNIRLostPackets 	0
scalar MyScenario.node[461].nic.mac1609_4 	RXTXLostPackets 	0
scalar MyScenario.node[461].nic.mac1609_4 	TotalLostPackets 	0
scalar MyScenario.node[461].nic.mac1609_4 	DroppedPacketsInMac 	0
scalar MyScenario.node[461].nic.mac1609_4 	TooLittleTime 	0
scalar MyScenario.node[461].nic.mac1609_4 	TimesIntoBackoff 	18
scalar MyScenario.node[461].nic.mac1609_4 	SlotsBackoff 	20
scalar MyScenario.node[461].nic.mac1609_4 	NumInternalContention 	0
scalar MyScenario.node[461].nic.mac1609_4 	totalBusyTime 	0.018738
scalar MyScenario.node[461].veinsmobility 	startTime 	25282.5
scalar MyScenario.node[461].veinsmobility 	totalTime 	17.5
scalar MyScenario.node[461].veinsmobility 	stopTime 	25300
scalar MyScenario.node[461].veinsmobility 	minSpeed 	2.0749381929715
scalar MyScenario.node[461].veinsmobility 	maxSpeed 	15.899223117126
scalar MyScenario.node[461].veinsmobility 	totalDistance 	222.20924298905
scalar MyScenario.node[461].veinsmobility 	totalCO2Emission 	39.934914670291
scalar MyScenario.node[442].appl 	generatedWSMs 	0
scalar MyScenario.node[442].appl 	receivedWSMs 	0
scalar MyScenario.node[442].appl 	generatedBSMs 	25
scalar MyScenario.node[442].appl 	receivedBSMs 	246
scalar MyScenario.node[442].appl 	generatedWSAs 	0
scalar MyScenario.node[442].appl 	receivedWSAs 	0
scalar MyScenario.node[442].nic.phy80211p 	busyTime 	0.00099162790697674
scalar MyScenario.node[442].nic.mac1609_4 	ReceivedUnicastPackets 	0
scalar MyScenario.node[442].nic.mac1609_4 	ReceivedBroadcasts 	246
scalar MyScenario.node[442].nic.mac1609_4 	SentPackets 	25
scalar MyScenario.node[442].nic.mac1609_4 	SNIRLostPackets 	0
scalar MyScenario.node[442].nic.mac1609_4 	RXTXLostPackets 	0
scalar MyScenario.node[442].nic.mac1609_4 	TotalLostPackets 	0
scalar MyScenario.node[442].nic.mac1609_4 	DroppedPacketsInMac 	0
scalar MyScenario.node[442].nic.mac1609_4 	TooLittleTime 	0
scalar MyScenario.node[442].nic.mac1609_4 	TimesIntoBackoff 	25
scalar MyScenario.node[442].nic.mac1609_4 	SlotsBackoff 	31
scalar MyScenario.node[442].nic.mac1609_4 	NumInternalContention 	0
scalar MyScenario.node[442].nic.mac1609_4 	totalBusyTime 	0.028209
scalar MyScenario.node[442].veinsmobility 	startTime 	25274.2
scalar MyScenario.node[442].veinsmobility 	totalTime 	25.8
scalar MyScenario.node[442].veinsmobility 	stopTime 	25300
scalar MyScenario.node[442].veinsmobility 	minSpeed 	3.2239465612451
scalar MyScenario.node[442].veinsmobility 	maxSpeed 	15.002371894373
scalar MyScenario.node[442].veinsmobility 	totalDistance 	329.45131175056
scalar MyScenario.node[442].veinsmobility 	totalCO2Emission 	74.108355057668
