version 2
run AttackerType4-11-20180205-17:18:42-26508
attr configname AttackerType4
attr datetime 20180205-17:18:42
attr experiment AttackerType4
attr inifile omnetpp_11.ini
attr iterationvars "$start=3, $0=0.3"
attr iterationvarsf start=3,0.3-
attr measurement "$start=3, $0=0.3"
attr network MyScenario
attr processid 26508
attr repetition 1
attr replication #1
attr resultdir results
attr runnumber 11
attr seedset 1
attr start 3
param **.**.**.debug false
param **.**.nic.**.debug false
param **.coreDebug false
param **.debug false
param *.**.nic.mac1609_4.bitrate 6Mbps
param *.**.nic.mac1609_4.txPower 20mW
param *.**.nic.mac1609_4.useServiceChannel false
param *.**.nic.phy80211p.analogueModels "xmldoc(\"config.xml\")"
param *.**.nic.phy80211p.antenna "xmldoc(\"antenna.xml\", \"/root/Antenna[@id='monopole']\")"
param *.**.nic.phy80211p.decider "xmldoc(\"config.xml\")"
param *.**.nic.phy80211p.sensitivity -89dBm
param *.**.nic.phy80211p.thermalNoise -110dBm
param *.**.nic.phy80211p.usePropagationDelay true
param *.**.nic.phy80211p.useThermalNoise true
param *.**.veinsmobility.x 0
param *.**.veinsmobility.y 0
param *.**.veinsmobility.z 1.895
param *.**.veinsmobilityType.debug false
param *.annotations.draw false
param *.connectionManager.drawMaxIntfDist false
param *.connectionManager.maxInterfDist 2600m
param *.connectionManager.sendDirect true
param *.manager.autoShutdown true
param *.manager.configFile "\"dua.static.sumocfg\""
param *.manager.firstStepAt 3h
param *.manager.host "\"localhost\""
param *.manager.launchConfig "xmldoc(\"luxembourg.launchd.xml\")"
param *.manager.roiRects "\"2300,5400-6300,6300\""
param *.manager.seed 1
param *.manager.updateInterval 0.1s
param *.node[*].appl.attackerProbability 0.3
param *.node[*].appl.attackerType 4
param *.node[*].appl.beaconInterval 1s
param *.node[*].appl.dataOnSch false
param *.node[*].appl.headerLength "80 bit"
param *.node[*].appl.sendBeacons true
param *.node[*].appl.traceGroundTruthJSONFile "\"GroundTruthJSONlog\""
param *.node[*].appl.traceJSONFile "\"JSONlog-\""
param *.node[*].applType "\"AttackerApp\""
param *.obstacles.debug false
param *.obstacles.obstacles "xmldoc(\"config.xml\", \"//AnalogueModel[@type='SimpleObstacleShadowing']/obstacles\")"
param *.playgroundSizeX 13640m
param *.playgroundSizeY 11500m
param *.playgroundSizeZ 50m

scalar _runattrs_ 	start 	3
scalar MyScenario.node[1].appl 	generatedWSMs 	0
scalar MyScenario.node[1].appl 	receivedWSMs 	0
scalar MyScenario.node[1].appl 	generatedBSMs 	5
scalar MyScenario.node[1].appl 	receivedBSMs 	26
scalar MyScenario.node[1].appl 	generatedWSAs 	0
scalar MyScenario.node[1].appl 	receivedWSAs 	0
scalar MyScenario.node[1].nic.phy80211p 	busyTime 	0.00053019607843137
scalar MyScenario.node[1].nic.mac1609_4 	ReceivedUnicastPackets 	0
scalar MyScenario.node[1].nic.mac1609_4 	ReceivedBroadcasts 	26
scalar MyScenario.node[1].nic.mac1609_4 	SentPackets 	5
scalar MyScenario.node[1].nic.mac1609_4 	SNIRLostPackets 	0
scalar MyScenario.node[1].nic.mac1609_4 	RXTXLostPackets 	0
scalar MyScenario.node[1].nic.mac1609_4 	TotalLostPackets 	0
scalar MyScenario.node[1].nic.mac1609_4 	DroppedPacketsInMac 	0
scalar MyScenario.node[1].nic.mac1609_4 	TooLittleTime 	0
scalar MyScenario.node[1].nic.mac1609_4 	TimesIntoBackoff 	5
scalar MyScenario.node[1].nic.mac1609_4 	SlotsBackoff 	12
scalar MyScenario.node[1].nic.mac1609_4 	NumInternalContention 	0
scalar MyScenario.node[1].nic.mac1609_4 	totalBusyTime 	0.003229
scalar MyScenario.node[1].veinsmobility 	startTime 	10800
scalar MyScenario.node[1].veinsmobility 	totalTime 	5
scalar MyScenario.node[1].veinsmobility 	stopTime 	10805.1
scalar MyScenario.node[1].veinsmobility 	minSpeed 	33.534302378439
scalar MyScenario.node[1].veinsmobility 	maxSpeed 	33.667678806319
scalar MyScenario.node[1].veinsmobility 	totalDistance 	167.82411160697
scalar MyScenario.node[1].veinsmobility 	totalCO2Emission 	31.082617740067
scalar MyScenario.node[3].appl 	generatedWSMs 	0
scalar MyScenario.node[3].appl 	receivedWSMs 	0
scalar MyScenario.node[3].appl 	generatedBSMs 	5
scalar MyScenario.node[3].appl 	receivedBSMs 	30
scalar MyScenario.node[3].appl 	generatedWSAs 	0
scalar MyScenario.node[3].appl 	receivedWSAs 	0
scalar MyScenario.node[3].nic.phy80211p 	busyTime 	0.00057777777777778
scalar MyScenario.node[3].nic.mac1609_4 	ReceivedUnicastPackets 	0
scalar MyScenario.node[3].nic.mac1609_4 	ReceivedBroadcasts 	30
scalar MyScenario.node[3].nic.mac1609_4 	SentPackets 	5
scalar MyScenario.node[3].nic.mac1609_4 	SNIRLostPackets 	0
scalar MyScenario.node[3].nic.mac1609_4 	RXTXLostPackets 	0
scalar MyScenario.node[3].nic.mac1609_4 	TotalLostPackets 	0
scalar MyScenario.node[3].nic.mac1609_4 	DroppedPacketsInMac 	0
scalar MyScenario.node[3].nic.mac1609_4 	TooLittleTime 	0
scalar MyScenario.node[3].nic.mac1609_4 	TimesIntoBackoff 	5
scalar MyScenario.node[3].nic.mac1609_4 	SlotsBackoff 	5
scalar MyScenario.node[3].nic.mac1609_4 	NumInternalContention 	0
scalar MyScenario.node[3].nic.mac1609_4 	totalBusyTime 	0.003645
scalar MyScenario.node[3].veinsmobility 	startTime 	10800
scalar MyScenario.node[3].veinsmobility 	totalTime 	5.3
scalar MyScenario.node[3].veinsmobility 	stopTime 	10805.4
scalar MyScenario.node[3].veinsmobility 	minSpeed 	31.887271643459
scalar MyScenario.node[3].veinsmobility 	maxSpeed 	32.024725537329
scalar MyScenario.node[3].veinsmobility 	totalDistance 	169.52344704282
scalar MyScenario.node[3].veinsmobility 	totalCO2Emission 	29.931440484246
scalar MyScenario.node[0].appl 	generatedWSMs 	0
scalar MyScenario.node[0].appl 	receivedWSMs 	0
scalar MyScenario.node[0].appl 	generatedBSMs 	7
scalar MyScenario.node[0].appl 	receivedBSMs 	38
scalar MyScenario.node[0].appl 	generatedWSAs 	0
scalar MyScenario.node[0].appl 	receivedWSAs 	0
scalar MyScenario.node[0].nic.phy80211p 	busyTime 	0.00055661971830986
scalar MyScenario.node[0].nic.mac1609_4 	ReceivedUnicastPackets 	0
scalar MyScenario.node[0].nic.mac1609_4 	ReceivedBroadcasts 	38
scalar MyScenario.node[0].nic.mac1609_4 	SentPackets 	7
scalar MyScenario.node[0].nic.mac1609_4 	SNIRLostPackets 	0
scalar MyScenario.node[0].nic.mac1609_4 	RXTXLostPackets 	0
scalar MyScenario.node[0].nic.mac1609_4 	TotalLostPackets 	0
scalar MyScenario.node[0].nic.mac1609_4 	DroppedPacketsInMac 	0
scalar MyScenario.node[0].nic.mac1609_4 	TooLittleTime 	0
scalar MyScenario.node[0].nic.mac1609_4 	TimesIntoBackoff 	7
scalar MyScenario.node[0].nic.mac1609_4 	SlotsBackoff 	14
scalar MyScenario.node[0].nic.mac1609_4 	NumInternalContention 	0
scalar MyScenario.node[0].nic.mac1609_4 	totalBusyTime 	0.004687
scalar MyScenario.node[0].veinsmobility 	startTime 	10800
scalar MyScenario.node[0].veinsmobility 	totalTime 	7
scalar MyScenario.node[0].veinsmobility 	stopTime 	10807.1
scalar MyScenario.node[0].veinsmobility 	minSpeed 	33.486551067488
scalar MyScenario.node[0].veinsmobility 	maxSpeed 	33.633929326012
scalar MyScenario.node[0].veinsmobility 	totalDistance 	234.62849691726
scalar MyScenario.node[0].veinsmobility 	totalCO2Emission 	44.074924587889
scalar MyScenario.node[5].appl 	generatedWSMs 	0
scalar MyScenario.node[5].appl 	receivedWSMs 	0
scalar MyScenario.node[5].appl 	generatedBSMs 	10
scalar MyScenario.node[5].appl 	receivedBSMs 	76
scalar MyScenario.node[5].appl 	generatedWSAs 	0
scalar MyScenario.node[5].appl 	receivedWSAs 	0
scalar MyScenario.node[5].nic.phy80211p 	busyTime 	0.0008065306122449
scalar MyScenario.node[5].nic.mac1609_4 	ReceivedUnicastPackets 	0
scalar MyScenario.node[5].nic.mac1609_4 	ReceivedBroadcasts 	76
scalar MyScenario.node[5].nic.mac1609_4 	SentPackets 	10
scalar MyScenario.node[5].nic.mac1609_4 	SNIRLostPackets 	0
scalar MyScenario.node[5].nic.mac1609_4 	RXTXLostPackets 	0
scalar MyScenario.node[5].nic.mac1609_4 	TotalLostPackets 	0
scalar MyScenario.node[5].nic.mac1609_4 	DroppedPacketsInMac 	0
scalar MyScenario.node[5].nic.mac1609_4 	TooLittleTime 	0
scalar MyScenario.node[5].nic.mac1609_4 	TimesIntoBackoff 	10
scalar MyScenario.node[5].nic.mac1609_4 	SlotsBackoff 	14
scalar MyScenario.node[5].nic.mac1609_4 	NumInternalContention 	0
scalar MyScenario.node[5].nic.mac1609_4 	totalBusyTime 	0.008954
scalar MyScenario.node[5].veinsmobility 	startTime 	10800
scalar MyScenario.node[5].veinsmobility 	totalTime 	9.7
scalar MyScenario.node[5].veinsmobility 	stopTime 	10809.8
scalar MyScenario.node[5].veinsmobility 	minSpeed 	42.406283238999
scalar MyScenario.node[5].veinsmobility 	maxSpeed 	42.555276841033
scalar MyScenario.node[5].veinsmobility 	totalDistance 	411.54974101431
scalar MyScenario.node[5].veinsmobility 	totalCO2Emission 	98.01783356019
scalar MyScenario.node[6].appl 	generatedWSMs 	0
scalar MyScenario.node[6].appl 	receivedWSMs 	0
scalar MyScenario.node[6].appl 	generatedBSMs 	10
scalar MyScenario.node[6].appl 	receivedBSMs 	68
scalar MyScenario.node[6].appl 	generatedWSAs 	0
scalar MyScenario.node[6].appl 	receivedWSAs 	0
scalar MyScenario.node[6].nic.phy80211p 	busyTime 	0.00069
scalar MyScenario.node[6].nic.mac1609_4 	ReceivedUnicastPackets 	0
scalar MyScenario.node[6].nic.mac1609_4 	ReceivedBroadcasts 	68
scalar MyScenario.node[6].nic.mac1609_4 	SentPackets 	10
scalar MyScenario.node[6].nic.mac1609_4 	SNIRLostPackets 	1
scalar MyScenario.node[6].nic.mac1609_4 	RXTXLostPackets 	0
scalar MyScenario.node[6].nic.mac1609_4 	TotalLostPackets 	1
scalar MyScenario.node[6].nic.mac1609_4 	DroppedPacketsInMac 	0
scalar MyScenario.node[6].nic.mac1609_4 	TooLittleTime 	0
scalar MyScenario.node[6].nic.mac1609_4 	TimesIntoBackoff 	10
scalar MyScenario.node[6].nic.mac1609_4 	SlotsBackoff 	14
scalar MyScenario.node[6].nic.mac1609_4 	NumInternalContention 	0
scalar MyScenario.node[6].nic.mac1609_4 	totalBusyTime 	0.008226
scalar MyScenario.node[6].veinsmobility 	startTime 	10800
scalar MyScenario.node[6].veinsmobility 	totalTime 	10.3
scalar MyScenario.node[6].veinsmobility 	stopTime 	10810.4
scalar MyScenario.node[6].veinsmobility 	minSpeed 	29.885138275286
scalar MyScenario.node[6].veinsmobility 	maxSpeed 	29.997335356828
scalar MyScenario.node[6].veinsmobility 	totalDistance 	308.77936596022
scalar MyScenario.node[6].veinsmobility 	totalCO2Emission 	51.250908683839
scalar MyScenario.node[7].appl 	generatedWSMs 	0
scalar MyScenario.node[7].appl 	receivedWSMs 	0
scalar MyScenario.node[7].appl 	generatedBSMs 	11
scalar MyScenario.node[7].appl 	receivedBSMs 	82
scalar MyScenario.node[7].appl 	generatedWSAs 	0
scalar MyScenario.node[7].appl 	receivedWSAs 	0
scalar MyScenario.node[7].nic.phy80211p 	busyTime 	0.00072888888888889
scalar MyScenario.node[7].nic.mac1609_4 	ReceivedUnicastPackets 	0
scalar MyScenario.node[7].nic.mac1609_4 	ReceivedBroadcasts 	82
scalar MyScenario.node[7].nic.mac1609_4 	SentPackets 	11
scalar MyScenario.node[7].nic.mac1609_4 	SNIRLostPackets 	0
scalar MyScenario.node[7].nic.mac1609_4 	RXTXLostPackets 	0
scalar MyScenario.node[7].nic.mac1609_4 	TotalLostPackets 	0
scalar MyScenario.node[7].nic.mac1609_4 	DroppedPacketsInMac 	0
scalar MyScenario.node[7].nic.mac1609_4 	TooLittleTime 	0
scalar MyScenario.node[7].nic.mac1609_4 	TimesIntoBackoff 	11
scalar MyScenario.node[7].nic.mac1609_4 	SlotsBackoff 	11
scalar MyScenario.node[7].nic.mac1609_4 	NumInternalContention 	0
scalar MyScenario.node[7].nic.mac1609_4 	totalBusyTime 	0.009683
scalar MyScenario.node[7].veinsmobility 	startTime 	10800
scalar MyScenario.node[7].veinsmobility 	totalTime 	11.6
scalar MyScenario.node[7].veinsmobility 	stopTime 	10811.7
scalar MyScenario.node[7].veinsmobility 	minSpeed 	29.823631839875
scalar MyScenario.node[7].veinsmobility 	maxSpeed 	30.061451261745
scalar MyScenario.node[7].veinsmobility 	totalDistance 	347.740163408
scalar MyScenario.node[7].veinsmobility 	totalCO2Emission 	66.015707574812
scalar MyScenario.node[2].appl 	generatedWSMs 	0
scalar MyScenario.node[2].appl 	receivedWSMs 	0
scalar MyScenario.node[2].appl 	generatedBSMs 	14
scalar MyScenario.node[2].appl 	receivedBSMs 	77
scalar MyScenario.node[2].appl 	generatedWSAs 	0
scalar MyScenario.node[2].appl 	receivedWSAs 	0
scalar MyScenario.node[2].nic.phy80211p 	busyTime 	0.000572
scalar MyScenario.node[2].nic.mac1609_4 	ReceivedUnicastPackets 	0
scalar MyScenario.node[2].nic.mac1609_4 	ReceivedBroadcasts 	77
scalar MyScenario.node[2].nic.mac1609_4 	SentPackets 	14
scalar MyScenario.node[2].nic.mac1609_4 	SNIRLostPackets 	0
scalar MyScenario.node[2].nic.mac1609_4 	RXTXLostPackets 	0
scalar MyScenario.node[2].nic.mac1609_4 	TotalLostPackets 	0
scalar MyScenario.node[2].nic.mac1609_4 	DroppedPacketsInMac 	0
scalar MyScenario.node[2].nic.mac1609_4 	TooLittleTime 	0
scalar MyScenario.node[2].nic.mac1609_4 	TimesIntoBackoff 	14
scalar MyScenario.node[2].nic.mac1609_4 	SlotsBackoff 	19
scalar MyScenario.node[2].nic.mac1609_4 	NumInternalContention 	0
scalar MyScenario.node[2].nic.mac1609_4 	totalBusyTime 	0.009478
scalar MyScenario.node[2].veinsmobility 	startTime 	10800
scalar MyScenario.node[2].veinsmobility 	totalTime 	13.9
scalar MyScenario.node[2].veinsmobility 	stopTime 	10814
scalar MyScenario.node[2].veinsmobility 	minSpeed 	34.856593940101
scalar MyScenario.node[2].veinsmobility 	maxSpeed 	35.002994106311
scalar MyScenario.node[2].veinsmobility 	totalDistance 	484.86180751095
scalar MyScenario.node[2].veinsmobility 	totalCO2Emission 	94.241669691713
scalar MyScenario.node[8].appl 	generatedWSMs 	0
scalar MyScenario.node[8].appl 	receivedWSMs 	0
scalar MyScenario.node[8].appl 	generatedBSMs 	15
scalar MyScenario.node[8].appl 	receivedBSMs 	84
scalar MyScenario.node[8].appl 	generatedWSAs 	0
scalar MyScenario.node[8].appl 	receivedWSAs 	0
scalar MyScenario.node[8].nic.phy80211p 	busyTime 	0.00059835616438356
scalar MyScenario.node[8].nic.mac1609_4 	ReceivedUnicastPackets 	0
scalar MyScenario.node[8].nic.mac1609_4 	ReceivedBroadcasts 	84
scalar MyScenario.node[8].nic.mac1609_4 	SentPackets 	15
scalar MyScenario.node[8].nic.mac1609_4 	SNIRLostPackets 	0
scalar MyScenario.node[8].nic.mac1609_4 	RXTXLostPackets 	0
scalar MyScenario.node[8].nic.mac1609_4 	TotalLostPackets 	0
scalar MyScenario.node[8].nic.mac1609_4 	DroppedPacketsInMac 	0
scalar MyScenario.node[8].nic.mac1609_4 	TooLittleTime 	0
scalar MyScenario.node[8].nic.mac1609_4 	TimesIntoBackoff 	15
scalar MyScenario.node[8].nic.mac1609_4 	SlotsBackoff 	28
scalar MyScenario.node[8].nic.mac1609_4 	NumInternalContention 	0
scalar MyScenario.node[8].nic.mac1609_4 	totalBusyTime 	0.010311
scalar MyScenario.node[8].veinsmobility 	startTime 	10800
scalar MyScenario.node[8].veinsmobility 	totalTime 	14.5
scalar MyScenario.node[8].veinsmobility 	stopTime 	10814.6
scalar MyScenario.node[8].veinsmobility 	minSpeed 	35.843132097451
scalar MyScenario.node[8].veinsmobility 	maxSpeed 	35.980760529623
scalar MyScenario.node[8].veinsmobility 	totalDistance 	521.30337205728
scalar MyScenario.node[8].veinsmobility 	totalCO2Emission 	101.85194213321
scalar MyScenario.node[10].appl 	generatedWSMs 	0
scalar MyScenario.node[10].appl 	receivedWSMs 	0
scalar MyScenario.node[10].appl 	generatedBSMs 	18
scalar MyScenario.node[10].appl 	receivedBSMs 	101
scalar MyScenario.node[10].appl 	generatedWSAs 	0
scalar MyScenario.node[10].appl 	receivedWSAs 	0
scalar MyScenario.node[10].nic.phy80211p 	busyTime 	0.00059344632768362
scalar MyScenario.node[10].nic.mac1609_4 	ReceivedUnicastPackets 	0
scalar MyScenario.node[10].nic.mac1609_4 	ReceivedBroadcasts 	101
scalar MyScenario.node[10].nic.mac1609_4 	SentPackets 	18
scalar MyScenario.node[10].nic.mac1609_4 	SNIRLostPackets 	0
scalar MyScenario.node[10].nic.mac1609_4 	RXTXLostPackets 	0
scalar MyScenario.node[10].nic.mac1609_4 	TotalLostPackets 	0
scalar MyScenario.node[10].nic.mac1609_4 	DroppedPacketsInMac 	0
scalar MyScenario.node[10].nic.mac1609_4 	TooLittleTime 	0
scalar MyScenario.node[10].nic.mac1609_4 	TimesIntoBackoff 	18
scalar MyScenario.node[10].nic.mac1609_4 	SlotsBackoff 	30
scalar MyScenario.node[10].nic.mac1609_4 	NumInternalContention 	0
scalar MyScenario.node[10].nic.mac1609_4 	totalBusyTime 	0.012394
scalar MyScenario.node[10].veinsmobility 	startTime 	10800
scalar MyScenario.node[10].veinsmobility 	totalTime 	17.6
scalar MyScenario.node[10].veinsmobility 	stopTime 	10817.7
scalar MyScenario.node[10].veinsmobility 	minSpeed 	34.179014822403
scalar MyScenario.node[10].veinsmobility 	maxSpeed 	34.305655390518
scalar MyScenario.node[10].veinsmobility 	totalDistance 	603.41534970376
scalar MyScenario.node[10].veinsmobility 	totalCO2Emission 	113.32980305034
scalar MyScenario.node[4].appl 	generatedWSMs 	0
scalar MyScenario.node[4].appl 	receivedWSMs 	0
scalar MyScenario.node[4].appl 	generatedBSMs 	21
scalar MyScenario.node[4].appl 	receivedBSMs 	99
scalar MyScenario.node[4].appl 	generatedWSAs 	0
scalar MyScenario.node[4].appl 	receivedWSAs 	0
scalar MyScenario.node[4].nic.phy80211p 	busyTime 	0.00047888372093023
scalar MyScenario.node[4].nic.mac1609_4 	ReceivedUnicastPackets 	0
scalar MyScenario.node[4].nic.mac1609_4 	ReceivedBroadcasts 	99
scalar MyScenario.node[4].nic.mac1609_4 	SentPackets 	21
scalar MyScenario.node[4].nic.mac1609_4 	SNIRLostPackets 	0
scalar MyScenario.node[4].nic.mac1609_4 	RXTXLostPackets 	0
scalar MyScenario.node[4].nic.mac1609_4 	TotalLostPackets 	0
scalar MyScenario.node[4].nic.mac1609_4 	DroppedPacketsInMac 	0
scalar MyScenario.node[4].nic.mac1609_4 	TooLittleTime 	0
scalar MyScenario.node[4].nic.mac1609_4 	TimesIntoBackoff 	21
scalar MyScenario.node[4].nic.mac1609_4 	SlotsBackoff 	25
scalar MyScenario.node[4].nic.mac1609_4 	NumInternalContention 	0
scalar MyScenario.node[4].nic.mac1609_4 	totalBusyTime 	0.012501
scalar MyScenario.node[4].veinsmobility 	startTime 	10800
scalar MyScenario.node[4].veinsmobility 	totalTime 	21.4
scalar MyScenario.node[4].veinsmobility 	stopTime 	10821.5
scalar MyScenario.node[4].veinsmobility 	minSpeed 	32.421681570837
scalar MyScenario.node[4].veinsmobility 	maxSpeed 	32.556098709352
scalar MyScenario.node[4].veinsmobility 	totalDistance 	696.14494428012
scalar MyScenario.node[4].veinsmobility 	totalCO2Emission 	125.69917898975
scalar MyScenario.node[13].appl 	generatedWSMs 	0
scalar MyScenario.node[13].appl 	receivedWSMs 	0
scalar MyScenario.node[13].appl 	generatedBSMs 	27
scalar MyScenario.node[13].appl 	receivedBSMs 	132
scalar MyScenario.node[13].appl 	generatedWSAs 	0
scalar MyScenario.node[13].appl 	receivedWSAs 	0
scalar MyScenario.node[13].nic.phy80211p 	busyTime 	0.00050844444444444
scalar MyScenario.node[13].nic.mac1609_4 	ReceivedUnicastPackets 	0
scalar MyScenario.node[13].nic.mac1609_4 	ReceivedBroadcasts 	132
scalar MyScenario.node[13].nic.mac1609_4 	SentPackets 	27
scalar MyScenario.node[13].nic.mac1609_4 	SNIRLostPackets 	0
scalar MyScenario.node[13].nic.mac1609_4 	RXTXLostPackets 	0
scalar MyScenario.node[13].nic.mac1609_4 	TotalLostPackets 	0
scalar MyScenario.node[13].nic.mac1609_4 	DroppedPacketsInMac 	0
scalar MyScenario.node[13].nic.mac1609_4 	TooLittleTime 	0
scalar MyScenario.node[13].nic.mac1609_4 	TimesIntoBackoff 	27
scalar MyScenario.node[13].nic.mac1609_4 	SlotsBackoff 	39
scalar MyScenario.node[13].nic.mac1609_4 	NumInternalContention 	0
scalar MyScenario.node[13].nic.mac1609_4 	totalBusyTime 	0.016563
scalar MyScenario.node[13].veinsmobility 	startTime 	10810.1
scalar MyScenario.node[13].veinsmobility 	totalTime 	26.9
scalar MyScenario.node[13].veinsmobility 	stopTime 	10837.1
scalar MyScenario.node[13].veinsmobility 	minSpeed 	33.367581782396
scalar MyScenario.node[13].veinsmobility 	maxSpeed 	33.496868935755
scalar MyScenario.node[13].veinsmobility 	totalDistance 	898.405189971
scalar MyScenario.node[13].veinsmobility 	totalCO2Emission 	164.69442412408
scalar MyScenario.node[12].appl 	generatedWSMs 	0
scalar MyScenario.node[12].appl 	receivedWSMs 	0
scalar MyScenario.node[12].appl 	generatedBSMs 	31
scalar MyScenario.node[12].appl 	receivedBSMs 	163
scalar MyScenario.node[12].appl 	generatedWSAs 	0
scalar MyScenario.node[12].appl 	receivedWSAs 	0
scalar MyScenario.node[12].nic.phy80211p 	busyTime 	0.00055580327868852
scalar MyScenario.node[12].nic.mac1609_4 	ReceivedUnicastPackets 	0
scalar MyScenario.node[12].nic.mac1609_4 	ReceivedBroadcasts 	163
scalar MyScenario.node[12].nic.mac1609_4 	SentPackets 	31
scalar MyScenario.node[12].nic.mac1609_4 	SNIRLostPackets 	0
scalar MyScenario.node[12].nic.mac1609_4 	RXTXLostPackets 	0
scalar MyScenario.node[12].nic.mac1609_4 	TotalLostPackets 	0
scalar MyScenario.node[12].nic.mac1609_4 	DroppedPacketsInMac 	0
scalar MyScenario.node[12].nic.mac1609_4 	TooLittleTime 	0
scalar MyScenario.node[12].nic.mac1609_4 	TimesIntoBackoff 	31
scalar MyScenario.node[12].nic.mac1609_4 	SlotsBackoff 	50
scalar MyScenario.node[12].nic.mac1609_4 	NumInternalContention 	0
scalar MyScenario.node[12].nic.mac1609_4 	totalBusyTime 	0.020207
scalar MyScenario.node[12].veinsmobility 	startTime 	10809.3
scalar MyScenario.node[12].veinsmobility 	totalTime 	30.4
scalar MyScenario.node[12].veinsmobility 	stopTime 	10839.8
scalar MyScenario.node[12].veinsmobility 	minSpeed 	29.595037212914
scalar MyScenario.node[12].veinsmobility 	maxSpeed 	29.72417835588
scalar MyScenario.node[12].veinsmobility 	totalDistance 	902.5458281874
scalar MyScenario.node[12].veinsmobility 	totalCO2Emission 	155.17245136414
scalar MyScenario.node[14].appl 	generatedWSMs 	0
scalar MyScenario.node[14].appl 	receivedWSMs 	0
scalar MyScenario.node[14].appl 	generatedBSMs 	30
scalar MyScenario.node[14].appl 	receivedBSMs 	160
scalar MyScenario.node[14].appl 	generatedWSAs 	0
scalar MyScenario.node[14].appl 	receivedWSAs 	0
scalar MyScenario.node[14].nic.phy80211p 	busyTime 	0.0005455737704918
scalar MyScenario.node[14].nic.mac1609_4 	ReceivedUnicastPackets 	0
scalar MyScenario.node[14].nic.mac1609_4 	ReceivedBroadcasts 	160
scalar MyScenario.node[14].nic.mac1609_4 	SentPackets 	30
scalar MyScenario.node[14].nic.mac1609_4 	SNIRLostPackets 	0
scalar MyScenario.node[14].nic.mac1609_4 	RXTXLostPackets 	0
scalar MyScenario.node[14].nic.mac1609_4 	TotalLostPackets 	0
scalar MyScenario.node[14].nic.mac1609_4 	DroppedPacketsInMac 	0
scalar MyScenario.node[14].nic.mac1609_4 	TooLittleTime 	0
scalar MyScenario.node[14].nic.mac1609_4 	TimesIntoBackoff 	30
scalar MyScenario.node[14].nic.mac1609_4 	SlotsBackoff 	38
scalar MyScenario.node[14].nic.mac1609_4 	NumInternalContention 	0
scalar MyScenario.node[14].nic.mac1609_4 	totalBusyTime 	0.01979
scalar MyScenario.node[14].veinsmobility 	startTime 	10810.5
scalar MyScenario.node[14].veinsmobility 	totalTime 	30.4
scalar MyScenario.node[14].veinsmobility 	stopTime 	10841
scalar MyScenario.node[14].veinsmobility 	minSpeed 	29.544385059027
scalar MyScenario.node[14].veinsmobility 	maxSpeed 	29.785990526384
scalar MyScenario.node[14].veinsmobility 	totalDistance 	902.53812677413
scalar MyScenario.node[14].veinsmobility 	totalCO2Emission 	169.66783602559
scalar MyScenario.node[15].appl 	generatedWSMs 	0
scalar MyScenario.node[15].appl 	receivedWSMs 	0
scalar MyScenario.node[15].appl 	generatedBSMs 	30
scalar MyScenario.node[15].appl 	receivedBSMs 	151
scalar MyScenario.node[15].appl 	generatedWSAs 	0
scalar MyScenario.node[15].appl 	receivedWSAs 	0
scalar MyScenario.node[15].nic.phy80211p 	busyTime 	0.00051657894736842
scalar MyScenario.node[15].nic.mac1609_4 	ReceivedUnicastPackets 	0
scalar MyScenario.node[15].nic.mac1609_4 	ReceivedBroadcasts 	151
scalar MyScenario.node[15].nic.mac1609_4 	SentPackets 	30
scalar MyScenario.node[15].nic.mac1609_4 	SNIRLostPackets 	0
scalar MyScenario.node[15].nic.mac1609_4 	RXTXLostPackets 	0
scalar MyScenario.node[15].nic.mac1609_4 	TotalLostPackets 	0
scalar MyScenario.node[15].nic.mac1609_4 	DroppedPacketsInMac 	0
scalar MyScenario.node[15].nic.mac1609_4 	TooLittleTime 	0
scalar MyScenario.node[15].nic.mac1609_4 	TimesIntoBackoff 	30
scalar MyScenario.node[15].nic.mac1609_4 	SlotsBackoff 	42
scalar MyScenario.node[15].nic.mac1609_4 	NumInternalContention 	0
scalar MyScenario.node[15].nic.mac1609_4 	totalBusyTime 	0.018854
scalar MyScenario.node[15].veinsmobility 	startTime 	10811.8
scalar MyScenario.node[15].veinsmobility 	totalTime 	30.3
scalar MyScenario.node[15].veinsmobility 	stopTime 	10842.2
scalar MyScenario.node[15].veinsmobility 	minSpeed 	29.529089423299
scalar MyScenario.node[15].veinsmobility 	maxSpeed 	30.015857156345
scalar MyScenario.node[15].veinsmobility 	totalDistance 	901.60665336258
scalar MyScenario.node[15].veinsmobility 	totalCO2Emission 	179.72580809488
scalar MyScenario.node[16].appl 	generatedWSMs 	0
scalar MyScenario.node[16].appl 	receivedWSMs 	0
scalar MyScenario.node[16].appl 	generatedBSMs 	30
scalar MyScenario.node[16].appl 	receivedBSMs 	168
scalar MyScenario.node[16].appl 	generatedWSAs 	0
scalar MyScenario.node[16].appl 	receivedWSAs 	0
scalar MyScenario.node[16].nic.phy80211p 	busyTime 	0.00057854304635762
scalar MyScenario.node[16].nic.mac1609_4 	ReceivedUnicastPackets 	0
scalar MyScenario.node[16].nic.mac1609_4 	ReceivedBroadcasts 	168
scalar MyScenario.node[16].nic.mac1609_4 	SentPackets 	30
scalar MyScenario.node[16].nic.mac1609_4 	SNIRLostPackets 	0
scalar MyScenario.node[16].nic.mac1609_4 	RXTXLostPackets 	0
scalar MyScenario.node[16].nic.mac1609_4 	TotalLostPackets 	0
scalar MyScenario.node[16].nic.mac1609_4 	DroppedPacketsInMac 	0
scalar MyScenario.node[16].nic.mac1609_4 	TooLittleTime 	0
scalar MyScenario.node[16].nic.mac1609_4 	TimesIntoBackoff 	30
scalar MyScenario.node[16].nic.mac1609_4 	SlotsBackoff 	51
scalar MyScenario.node[16].nic.mac1609_4 	NumInternalContention 	0
scalar MyScenario.node[16].nic.mac1609_4 	totalBusyTime 	0.020622
scalar MyScenario.node[16].veinsmobility 	startTime 	10816.1
scalar MyScenario.node[16].veinsmobility 	totalTime 	30.1
scalar MyScenario.node[16].veinsmobility 	stopTime 	10846.3
scalar MyScenario.node[16].veinsmobility 	minSpeed 	29.880354342302
scalar MyScenario.node[16].veinsmobility 	maxSpeed 	29.999077970088
scalar MyScenario.node[16].veinsmobility 	totalDistance 	900.108211337
scalar MyScenario.node[16].veinsmobility 	totalCO2Emission 	155.19721167788
scalar MyScenario.node[17].appl 	generatedWSMs 	0
scalar MyScenario.node[17].appl 	receivedWSMs 	0
scalar MyScenario.node[17].appl 	generatedBSMs 	30
scalar MyScenario.node[17].appl 	receivedBSMs 	174
scalar MyScenario.node[17].appl 	generatedWSAs 	0
scalar MyScenario.node[17].appl 	receivedWSAs 	0
scalar MyScenario.node[17].nic.phy80211p 	busyTime 	0.00061342372881356
scalar MyScenario.node[17].nic.mac1609_4 	ReceivedUnicastPackets 	0
scalar MyScenario.node[17].nic.mac1609_4 	ReceivedBroadcasts 	174
scalar MyScenario.node[17].nic.mac1609_4 	SentPackets 	30
scalar MyScenario.node[17].nic.mac1609_4 	SNIRLostPackets 	0
scalar MyScenario.node[17].nic.mac1609_4 	RXTXLostPackets 	0
scalar MyScenario.node[17].nic.mac1609_4 	TotalLostPackets 	0
scalar MyScenario.node[17].nic.mac1609_4 	DroppedPacketsInMac 	0
scalar MyScenario.node[17].nic.mac1609_4 	TooLittleTime 	0
scalar MyScenario.node[17].nic.mac1609_4 	TimesIntoBackoff 	30
scalar MyScenario.node[17].nic.mac1609_4 	SlotsBackoff 	44
scalar MyScenario.node[17].nic.mac1609_4 	NumInternalContention 	0
scalar MyScenario.node[17].nic.mac1609_4 	totalBusyTime 	0.021246
scalar MyScenario.node[17].veinsmobility 	startTime 	10818.1
scalar MyScenario.node[17].veinsmobility 	totalTime 	29.4
scalar MyScenario.node[17].veinsmobility 	stopTime 	10847.6
scalar MyScenario.node[17].veinsmobility 	minSpeed 	29.916399055458
scalar MyScenario.node[17].veinsmobility 	maxSpeed 	32.633090466627
scalar MyScenario.node[17].veinsmobility 	totalDistance 	899.76733415016
scalar MyScenario.node[17].veinsmobility 	totalCO2Emission 	151.00498130922
scalar MyScenario.node[19].appl 	generatedWSMs 	0
scalar MyScenario.node[19].appl 	receivedWSMs 	0
scalar MyScenario.node[19].appl 	generatedBSMs 	28
scalar MyScenario.node[19].appl 	receivedBSMs 	165
scalar MyScenario.node[19].appl 	generatedWSAs 	0
scalar MyScenario.node[19].appl 	receivedWSAs 	0
scalar MyScenario.node[19].nic.phy80211p 	busyTime 	0.0006194945848375
scalar MyScenario.node[19].nic.mac1609_4 	ReceivedUnicastPackets 	0
scalar MyScenario.node[19].nic.mac1609_4 	ReceivedBroadcasts 	165
scalar MyScenario.node[19].nic.mac1609_4 	SentPackets 	28
scalar MyScenario.node[19].nic.mac1609_4 	SNIRLostPackets 	0
scalar MyScenario.node[19].nic.mac1609_4 	RXTXLostPackets 	0
scalar MyScenario.node[19].nic.mac1609_4 	TotalLostPackets 	0
scalar MyScenario.node[19].nic.mac1609_4 	DroppedPacketsInMac 	0
scalar MyScenario.node[19].nic.mac1609_4 	TooLittleTime 	0
scalar MyScenario.node[19].nic.mac1609_4 	TimesIntoBackoff 	28
scalar MyScenario.node[19].nic.mac1609_4 	SlotsBackoff 	45
scalar MyScenario.node[19].nic.mac1609_4 	NumInternalContention 	0
scalar MyScenario.node[19].nic.mac1609_4 	totalBusyTime 	0.0201
scalar MyScenario.node[19].veinsmobility 	startTime 	10821.2
scalar MyScenario.node[19].veinsmobility 	totalTime 	27.6
scalar MyScenario.node[19].veinsmobility 	stopTime 	10848.9
scalar MyScenario.node[19].veinsmobility 	minSpeed 	30.140173579363
scalar MyScenario.node[19].veinsmobility 	maxSpeed 	38.867038999445
scalar MyScenario.node[19].veinsmobility 	totalDistance 	901.04008677114
scalar MyScenario.node[19].veinsmobility 	totalCO2Emission 	128.93187160761
scalar MyScenario.node[22].appl 	generatedWSMs 	0
scalar MyScenario.node[22].appl 	receivedWSMs 	0
scalar MyScenario.node[22].appl 	generatedBSMs 	23
scalar MyScenario.node[22].appl 	receivedBSMs 	160
scalar MyScenario.node[22].appl 	generatedWSAs 	0
scalar MyScenario.node[22].appl 	receivedWSAs 	0
scalar MyScenario.node[22].nic.phy80211p 	busyTime 	0.00072663755458509
scalar MyScenario.node[22].nic.mac1609_4 	ReceivedUnicastPackets 	0
scalar MyScenario.node[22].nic.mac1609_4 	ReceivedBroadcasts 	160
scalar MyScenario.node[22].nic.mac1609_4 	SentPackets 	23
scalar MyScenario.node[22].nic.mac1609_4 	SNIRLostPackets 	0
scalar MyScenario.node[22].nic.mac1609_4 	RXTXLostPackets 	0
scalar MyScenario.node[22].nic.mac1609_4 	TotalLostPackets 	0
scalar MyScenario.node[22].nic.mac1609_4 	DroppedPacketsInMac 	0
scalar MyScenario.node[22].nic.mac1609_4 	TooLittleTime 	0
scalar MyScenario.node[22].nic.mac1609_4 	TimesIntoBackoff 	23
scalar MyScenario.node[22].nic.mac1609_4 	SlotsBackoff 	39
scalar MyScenario.node[22].nic.mac1609_4 	NumInternalContention 	0
scalar MyScenario.node[22].nic.mac1609_4 	totalBusyTime 	0.019055
scalar MyScenario.node[22].veinsmobility 	startTime 	10829.2
scalar MyScenario.node[22].veinsmobility 	totalTime 	22.8
scalar MyScenario.node[22].veinsmobility 	stopTime 	10852.1
scalar MyScenario.node[22].veinsmobility 	minSpeed 	37.057699679362
scalar MyScenario.node[22].veinsmobility 	maxSpeed 	39.770500651071
scalar MyScenario.node[22].veinsmobility 	totalDistance 	900.39422043184
scalar MyScenario.node[22].veinsmobility 	totalCO2Emission 	183.52763241009
scalar MyScenario.node[21].appl 	generatedWSMs 	0
scalar MyScenario.node[21].appl 	receivedWSMs 	0
scalar MyScenario.node[21].appl 	generatedBSMs 	29
scalar MyScenario.node[21].appl 	receivedBSMs 	132
scalar MyScenario.node[21].appl 	generatedWSAs 	0
scalar MyScenario.node[21].appl 	receivedWSAs 	0
scalar MyScenario.node[21].nic.phy80211p 	busyTime 	0.00048168421052632
scalar MyScenario.node[21].nic.mac1609_4 	ReceivedUnicastPackets 	0
scalar MyScenario.node[21].nic.mac1609_4 	ReceivedBroadcasts 	132
scalar MyScenario.node[21].nic.mac1609_4 	SentPackets 	29
scalar MyScenario.node[21].nic.mac1609_4 	SNIRLostPackets 	0
scalar MyScenario.node[21].nic.mac1609_4 	RXTXLostPackets 	0
scalar MyScenario.node[21].nic.mac1609_4 	TotalLostPackets 	0
scalar MyScenario.node[21].nic.mac1609_4 	DroppedPacketsInMac 	0
scalar MyScenario.node[21].nic.mac1609_4 	TooLittleTime 	0
scalar MyScenario.node[21].nic.mac1609_4 	TimesIntoBackoff 	29
scalar MyScenario.node[21].nic.mac1609_4 	SlotsBackoff 	42
scalar MyScenario.node[21].nic.mac1609_4 	NumInternalContention 	0
scalar MyScenario.node[21].nic.mac1609_4 	totalBusyTime 	0.016773
scalar MyScenario.node[21].veinsmobility 	startTime 	10829
scalar MyScenario.node[21].veinsmobility 	totalTime 	28.4
scalar MyScenario.node[21].veinsmobility 	stopTime 	10857.5
scalar MyScenario.node[21].veinsmobility 	minSpeed 	31.694299246816
scalar MyScenario.node[21].veinsmobility 	maxSpeed 	31.833104266038
scalar MyScenario.node[21].veinsmobility 	totalDistance 	902.93288885629
scalar MyScenario.node[21].veinsmobility 	totalCO2Emission 	164.24018919673
scalar MyScenario.node[25].appl 	generatedWSMs 	0
scalar MyScenario.node[25].appl 	receivedWSMs 	0
scalar MyScenario.node[25].appl 	generatedBSMs 	21
scalar MyScenario.node[25].appl 	receivedBSMs 	112
scalar MyScenario.node[25].appl 	generatedWSAs 	0
scalar MyScenario.node[25].appl 	receivedWSAs 	0
scalar MyScenario.node[25].nic.phy80211p 	busyTime 	0.0005343119266055
scalar MyScenario.node[25].nic.mac1609_4 	ReceivedUnicastPackets 	0
scalar MyScenario.node[25].nic.mac1609_4 	ReceivedBroadcasts 	112
scalar MyScenario.node[25].nic.mac1609_4 	SentPackets 	21
scalar MyScenario.node[25].nic.mac1609_4 	SNIRLostPackets 	0
scalar MyScenario.node[25].nic.mac1609_4 	RXTXLostPackets 	0
scalar MyScenario.node[25].nic.mac1609_4 	TotalLostPackets 	0
scalar MyScenario.node[25].nic.mac1609_4 	DroppedPacketsInMac 	0
scalar MyScenario.node[25].nic.mac1609_4 	TooLittleTime 	0
scalar MyScenario.node[25].nic.mac1609_4 	TimesIntoBackoff 	21
scalar MyScenario.node[25].nic.mac1609_4 	SlotsBackoff 	31
scalar MyScenario.node[25].nic.mac1609_4 	NumInternalContention 	0
scalar MyScenario.node[25].nic.mac1609_4 	totalBusyTime 	0.013853
scalar MyScenario.node[25].veinsmobility 	startTime 	10836.5
scalar MyScenario.node[25].veinsmobility 	totalTime 	21.7
scalar MyScenario.node[25].veinsmobility 	stopTime 	10858.3
scalar MyScenario.node[25].veinsmobility 	minSpeed 	41.365622005185
scalar MyScenario.node[25].veinsmobility 	maxSpeed 	41.504881727758
scalar MyScenario.node[25].veinsmobility 	totalDistance 	899.1524253267
scalar MyScenario.node[25].veinsmobility 	totalCO2Emission 	210.0667415863
scalar MyScenario.node[24].appl 	generatedWSMs 	0
scalar MyScenario.node[24].appl 	receivedWSMs 	0
scalar MyScenario.node[24].appl 	generatedBSMs 	24
scalar MyScenario.node[24].appl 	receivedBSMs 	126
scalar MyScenario.node[24].appl 	generatedWSAs 	0
scalar MyScenario.node[24].appl 	receivedWSAs 	0
scalar MyScenario.node[24].nic.phy80211p 	busyTime 	0.00053704918032787
scalar MyScenario.node[24].nic.mac1609_4 	ReceivedUnicastPackets 	0
scalar MyScenario.node[24].nic.mac1609_4 	ReceivedBroadcasts 	126
scalar MyScenario.node[24].nic.mac1609_4 	SentPackets 	24
scalar MyScenario.node[24].nic.mac1609_4 	SNIRLostPackets 	0
scalar MyScenario.node[24].nic.mac1609_4 	RXTXLostPackets 	0
scalar MyScenario.node[24].nic.mac1609_4 	TotalLostPackets 	0
scalar MyScenario.node[24].nic.mac1609_4 	DroppedPacketsInMac 	0
scalar MyScenario.node[24].nic.mac1609_4 	TooLittleTime 	0
scalar MyScenario.node[24].nic.mac1609_4 	TimesIntoBackoff 	24
scalar MyScenario.node[24].nic.mac1609_4 	SlotsBackoff 	31
scalar MyScenario.node[24].nic.mac1609_4 	NumInternalContention 	0
scalar MyScenario.node[24].nic.mac1609_4 	totalBusyTime 	0.015624
scalar MyScenario.node[24].veinsmobility 	startTime 	10835.5
scalar MyScenario.node[24].veinsmobility 	totalTime 	24.3
scalar MyScenario.node[24].veinsmobility 	stopTime 	10859.9
scalar MyScenario.node[24].veinsmobility 	minSpeed 	37.011670299952
scalar MyScenario.node[24].veinsmobility 	maxSpeed 	37.140061380944
scalar MyScenario.node[24].veinsmobility 	totalDistance 	899.79640258646
scalar MyScenario.node[24].veinsmobility 	totalCO2Emission 	184.72577575321
scalar MyScenario.node[26].appl 	generatedWSMs 	0
scalar MyScenario.node[26].appl 	receivedWSMs 	0
scalar MyScenario.node[26].appl 	generatedBSMs 	24
scalar MyScenario.node[26].appl 	receivedBSMs 	120
scalar MyScenario.node[26].appl 	generatedWSAs 	0
scalar MyScenario.node[26].appl 	receivedWSAs 	0
scalar MyScenario.node[26].nic.phy80211p 	busyTime 	0.00051570247933884
scalar MyScenario.node[26].nic.mac1609_4 	ReceivedUnicastPackets 	0
scalar MyScenario.node[26].nic.mac1609_4 	ReceivedBroadcasts 	120
scalar MyScenario.node[26].nic.mac1609_4 	SentPackets 	24
scalar MyScenario.node[26].nic.mac1609_4 	SNIRLostPackets 	0
scalar MyScenario.node[26].nic.mac1609_4 	RXTXLostPackets 	0
scalar MyScenario.node[26].nic.mac1609_4 	TotalLostPackets 	0
scalar MyScenario.node[26].nic.mac1609_4 	DroppedPacketsInMac 	0
scalar MyScenario.node[26].nic.mac1609_4 	TooLittleTime 	0
scalar MyScenario.node[26].nic.mac1609_4 	TimesIntoBackoff 	24
scalar MyScenario.node[26].nic.mac1609_4 	SlotsBackoff 	45
scalar MyScenario.node[26].nic.mac1609_4 	NumInternalContention 	0
scalar MyScenario.node[26].nic.mac1609_4 	totalBusyTime 	0.015
scalar MyScenario.node[26].veinsmobility 	startTime 	10839
scalar MyScenario.node[26].veinsmobility 	totalTime 	24.1
scalar MyScenario.node[26].veinsmobility 	stopTime 	10863.2
scalar MyScenario.node[26].veinsmobility 	minSpeed 	37.387601767014
scalar MyScenario.node[26].veinsmobility 	maxSpeed 	37.536555696488
scalar MyScenario.node[26].veinsmobility 	totalDistance 	902.81705042131
scalar MyScenario.node[26].veinsmobility 	totalCO2Emission 	187.21367447485
scalar MyScenario.node[27].appl 	generatedWSMs 	0
scalar MyScenario.node[27].appl 	receivedWSMs 	0
scalar MyScenario.node[27].appl 	generatedBSMs 	30
scalar MyScenario.node[27].appl 	receivedBSMs 	124
scalar MyScenario.node[27].appl 	generatedWSAs 	0
scalar MyScenario.node[27].appl 	receivedWSAs 	0
scalar MyScenario.node[27].nic.phy80211p 	busyTime 	0.00043130434782609
scalar MyScenario.node[27].nic.mac1609_4 	ReceivedUnicastPackets 	0
scalar MyScenario.node[27].nic.mac1609_4 	ReceivedBroadcasts 	124
scalar MyScenario.node[27].nic.mac1609_4 	SentPackets 	30
scalar MyScenario.node[27].nic.mac1609_4 	SNIRLostPackets 	0
scalar MyScenario.node[27].nic.mac1609_4 	RXTXLostPackets 	0
scalar MyScenario.node[27].nic.mac1609_4 	TotalLostPackets 	0
scalar MyScenario.node[27].nic.mac1609_4 	DroppedPacketsInMac 	0
scalar MyScenario.node[27].nic.mac1609_4 	TooLittleTime 	0
scalar MyScenario.node[27].nic.mac1609_4 	TimesIntoBackoff 	30
scalar MyScenario.node[27].nic.mac1609_4 	SlotsBackoff 	39
scalar MyScenario.node[27].nic.mac1609_4 	NumInternalContention 	0
scalar MyScenario.node[27].nic.mac1609_4 	totalBusyTime 	0.016046
scalar MyScenario.node[27].veinsmobility 	startTime 	10840.3
scalar MyScenario.node[27].veinsmobility 	totalTime 	29.8
scalar MyScenario.node[27].veinsmobility 	stopTime 	10870.2
scalar MyScenario.node[27].veinsmobility 	minSpeed 	30.214813802857
scalar MyScenario.node[27].veinsmobility 	maxSpeed 	30.34451822292
scalar MyScenario.node[27].veinsmobility 	totalDistance 	901.34004693429
scalar MyScenario.node[27].veinsmobility 	totalCO2Emission 	157.5190395042
scalar MyScenario.node[29].appl 	generatedWSMs 	0
scalar MyScenario.node[29].appl 	receivedWSMs 	0
scalar MyScenario.node[29].appl 	generatedBSMs 	30
scalar MyScenario.node[29].appl 	receivedBSMs 	116
scalar MyScenario.node[29].appl 	generatedWSAs 	0
scalar MyScenario.node[29].appl 	receivedWSAs 	0
scalar MyScenario.node[29].nic.phy80211p 	busyTime 	0.00040079734219269
scalar MyScenario.node[29].nic.mac1609_4 	ReceivedUnicastPackets 	0
scalar MyScenario.node[29].nic.mac1609_4 	ReceivedBroadcasts 	116
scalar MyScenario.node[29].nic.mac1609_4 	SentPackets 	30
scalar MyScenario.node[29].nic.mac1609_4 	SNIRLostPackets 	0
scalar MyScenario.node[29].nic.mac1609_4 	RXTXLostPackets 	0
scalar MyScenario.node[29].nic.mac1609_4 	TotalLostPackets 	0
scalar MyScenario.node[29].nic.mac1609_4 	DroppedPacketsInMac 	0
scalar MyScenario.node[29].nic.mac1609_4 	TooLittleTime 	0
scalar MyScenario.node[29].nic.mac1609_4 	TimesIntoBackoff 	30
scalar MyScenario.node[29].nic.mac1609_4 	SlotsBackoff 	37
scalar MyScenario.node[29].nic.mac1609_4 	NumInternalContention 	0
scalar MyScenario.node[29].nic.mac1609_4 	totalBusyTime 	0.015214
scalar MyScenario.node[29].veinsmobility 	startTime 	10844.3
scalar MyScenario.node[29].veinsmobility 	totalTime 	30
scalar MyScenario.node[29].veinsmobility 	stopTime 	10874.4
scalar MyScenario.node[29].veinsmobility 	minSpeed 	29.885430622345
scalar MyScenario.node[29].veinsmobility 	maxSpeed 	29.999484040418
scalar MyScenario.node[29].veinsmobility 	totalDistance 	899.26709750822
scalar MyScenario.node[29].veinsmobility 	totalCO2Emission 	154.93701720469
scalar MyScenario.node[30].appl 	generatedWSMs 	0
scalar MyScenario.node[30].appl 	receivedWSMs 	0
scalar MyScenario.node[30].appl 	generatedBSMs 	22
scalar MyScenario.node[30].appl 	receivedBSMs 	61
scalar MyScenario.node[30].appl 	generatedWSAs 	0
scalar MyScenario.node[30].appl 	receivedWSAs 	0
scalar MyScenario.node[30].nic.phy80211p 	busyTime 	0.00027824561403506
scalar MyScenario.node[30].nic.mac1609_4 	ReceivedUnicastPackets 	0
scalar MyScenario.node[30].nic.mac1609_4 	ReceivedBroadcasts 	61
scalar MyScenario.node[30].nic.mac1609_4 	SentPackets 	22
scalar MyScenario.node[30].nic.mac1609_4 	SNIRLostPackets 	0
scalar MyScenario.node[30].nic.mac1609_4 	RXTXLostPackets 	0
scalar MyScenario.node[30].nic.mac1609_4 	TotalLostPackets 	0
scalar MyScenario.node[30].nic.mac1609_4 	DroppedPacketsInMac 	0
scalar MyScenario.node[30].nic.mac1609_4 	TooLittleTime 	0
scalar MyScenario.node[30].nic.mac1609_4 	TimesIntoBackoff 	22
scalar MyScenario.node[30].nic.mac1609_4 	SlotsBackoff 	30
scalar MyScenario.node[30].nic.mac1609_4 	NumInternalContention 	0
scalar MyScenario.node[30].nic.mac1609_4 	totalBusyTime 	0.008654
scalar MyScenario.node[30].veinsmobility 	startTime 	10854.2
scalar MyScenario.node[30].veinsmobility 	totalTime 	22.7
scalar MyScenario.node[30].veinsmobility 	stopTime 	10877
scalar MyScenario.node[30].veinsmobility 	minSpeed 	39.604963517181
scalar MyScenario.node[30].veinsmobility 	maxSpeed 	39.737878685682
scalar MyScenario.node[30].veinsmobility 	totalDistance 	899.51726930882
scalar MyScenario.node[30].veinsmobility 	totalCO2Emission 	198.53089372796
scalar MyScenario.node[31].appl 	generatedWSMs 	0
scalar MyScenario.node[31].appl 	receivedWSMs 	0
scalar MyScenario.node[31].appl 	generatedBSMs 	26
scalar MyScenario.node[31].appl 	receivedBSMs 	67
scalar MyScenario.node[31].appl 	generatedWSAs 	0
scalar MyScenario.node[31].appl 	receivedWSAs 	0
scalar MyScenario.node[31].nic.phy80211p 	busyTime 	0.00026494296577945
scalar MyScenario.node[31].nic.mac1609_4 	ReceivedUnicastPackets 	0
scalar MyScenario.node[31].nic.mac1609_4 	ReceivedBroadcasts 	67
scalar MyScenario.node[31].nic.mac1609_4 	SentPackets 	26
scalar MyScenario.node[31].nic.mac1609_4 	SNIRLostPackets 	0
scalar MyScenario.node[31].nic.mac1609_4 	RXTXLostPackets 	0
scalar MyScenario.node[31].nic.mac1609_4 	TotalLostPackets 	0
scalar MyScenario.node[31].nic.mac1609_4 	DroppedPacketsInMac 	0
scalar MyScenario.node[31].nic.mac1609_4 	TooLittleTime 	0
scalar MyScenario.node[31].nic.mac1609_4 	TimesIntoBackoff 	29
scalar MyScenario.node[31].nic.mac1609_4 	SlotsBackoff 	37
scalar MyScenario.node[31].nic.mac1609_4 	NumInternalContention 	0
scalar MyScenario.node[31].nic.mac1609_4 	totalBusyTime 	0.009698
scalar MyScenario.node[31].veinsmobility 	startTime 	10857.2
scalar MyScenario.node[31].veinsmobility 	totalTime 	26.2
scalar MyScenario.node[31].veinsmobility 	stopTime 	10883.5
scalar MyScenario.node[31].veinsmobility 	minSpeed 	34.303615426842
scalar MyScenario.node[31].veinsmobility 	maxSpeed 	34.432440871622
scalar MyScenario.node[31].veinsmobility 	totalDistance 	901.3722233422
scalar MyScenario.node[31].veinsmobility 	totalCO2Emission 	172.49803834104
scalar MyScenario.node[32].appl 	generatedWSMs 	0
scalar MyScenario.node[32].appl 	receivedWSMs 	0
scalar MyScenario.node[32].appl 	generatedBSMs 	26
scalar MyScenario.node[32].appl 	receivedBSMs 	49
scalar MyScenario.node[32].appl 	generatedWSAs 	0
scalar MyScenario.node[32].appl 	receivedWSAs 	0
scalar MyScenario.node[32].nic.phy80211p 	busyTime 	0.00024062745098037
scalar MyScenario.node[32].nic.mac1609_4 	ReceivedUnicastPackets 	0
scalar MyScenario.node[32].nic.mac1609_4 	ReceivedBroadcasts 	49
scalar MyScenario.node[32].nic.mac1609_4 	SentPackets 	26
scalar MyScenario.node[32].nic.mac1609_4 	SNIRLostPackets 	10
scalar MyScenario.node[32].nic.mac1609_4 	RXTXLostPackets 	0
scalar MyScenario.node[32].nic.mac1609_4 	TotalLostPackets 	10
scalar MyScenario.node[32].nic.mac1609_4 	DroppedPacketsInMac 	0
scalar MyScenario.node[32].nic.mac1609_4 	TooLittleTime 	0
scalar MyScenario.node[32].nic.mac1609_4 	TimesIntoBackoff 	26
scalar MyScenario.node[32].nic.mac1609_4 	SlotsBackoff 	34
scalar MyScenario.node[32].nic.mac1609_4 	NumInternalContention 	0
scalar MyScenario.node[32].nic.mac1609_4 	totalBusyTime 	0.008346
scalar MyScenario.node[32].veinsmobility 	startTime 	10867.7
scalar MyScenario.node[32].veinsmobility 	totalTime 	25.4
scalar MyScenario.node[32].veinsmobility 	stopTime 	10893.2
scalar MyScenario.node[32].veinsmobility 	minSpeed 	35.432049403124
scalar MyScenario.node[32].veinsmobility 	maxSpeed 	35.560814321349
scalar MyScenario.node[32].veinsmobility 	totalDistance 	900.5535235509
scalar MyScenario.node[32].veinsmobility 	totalCO2Emission 	175.87978033497
scalar MyScenario.node[34].appl 	generatedWSMs 	0
scalar MyScenario.node[34].appl 	receivedWSMs 	0
scalar MyScenario.node[34].appl 	generatedBSMs 	23
scalar MyScenario.node[34].appl 	receivedBSMs 	49
scalar MyScenario.node[34].appl 	generatedWSAs 	0
scalar MyScenario.node[34].appl 	receivedWSAs 	0
scalar MyScenario.node[34].nic.phy80211p 	busyTime 	0.00023555555555556
scalar MyScenario.node[34].nic.mac1609_4 	ReceivedUnicastPackets 	0
scalar MyScenario.node[34].nic.mac1609_4 	ReceivedBroadcasts 	49
scalar MyScenario.node[34].nic.mac1609_4 	SentPackets 	23
scalar MyScenario.node[34].nic.mac1609_4 	SNIRLostPackets 	4
scalar MyScenario.node[34].nic.mac1609_4 	RXTXLostPackets 	0
scalar MyScenario.node[34].nic.mac1609_4 	TotalLostPackets 	4
scalar MyScenario.node[34].nic.mac1609_4 	DroppedPacketsInMac 	0
scalar MyScenario.node[34].nic.mac1609_4 	TooLittleTime 	0
scalar MyScenario.node[34].nic.mac1609_4 	TimesIntoBackoff 	23
scalar MyScenario.node[34].nic.mac1609_4 	SlotsBackoff 	32
scalar MyScenario.node[34].nic.mac1609_4 	NumInternalContention 	0
scalar MyScenario.node[34].nic.mac1609_4 	totalBusyTime 	0.007719
scalar MyScenario.node[34].veinsmobility 	startTime 	10875
scalar MyScenario.node[34].veinsmobility 	totalTime 	23.3
scalar MyScenario.node[34].veinsmobility 	stopTime 	10898.4
scalar MyScenario.node[34].veinsmobility 	minSpeed 	38.613309810542
scalar MyScenario.node[34].veinsmobility 	maxSpeed 	38.741539941471
scalar MyScenario.node[34].veinsmobility 	totalDistance 	900.14060766206
scalar MyScenario.node[34].veinsmobility 	totalCO2Emission 	193.38067220076
scalar MyScenario.node[38].appl 	generatedWSMs 	0
scalar MyScenario.node[38].appl 	receivedWSMs 	0
scalar MyScenario.node[38].appl 	generatedBSMs 	4
scalar MyScenario.node[38].appl 	receivedBSMs 	8
scalar MyScenario.node[38].appl 	generatedWSAs 	0
scalar MyScenario.node[38].appl 	receivedWSAs 	0
scalar MyScenario.node[38].nic.phy80211p 	busyTime 	0.00022486486486486
scalar MyScenario.node[38].nic.mac1609_4 	ReceivedUnicastPackets 	0
scalar MyScenario.node[38].nic.mac1609_4 	ReceivedBroadcasts 	8
scalar MyScenario.node[38].nic.mac1609_4 	SentPackets 	4
scalar MyScenario.node[38].nic.mac1609_4 	SNIRLostPackets 	0
scalar MyScenario.node[38].nic.mac1609_4 	RXTXLostPackets 	0
scalar MyScenario.node[38].nic.mac1609_4 	TotalLostPackets 	0
scalar MyScenario.node[38].nic.mac1609_4 	DroppedPacketsInMac 	0
scalar MyScenario.node[38].nic.mac1609_4 	TooLittleTime 	0
scalar MyScenario.node[38].nic.mac1609_4 	TimesIntoBackoff 	4
scalar MyScenario.node[38].nic.mac1609_4 	SlotsBackoff 	8
scalar MyScenario.node[38].nic.mac1609_4 	NumInternalContention 	0
scalar MyScenario.node[38].nic.mac1609_4 	totalBusyTime 	0.001252
scalar MyScenario.node[38].veinsmobility 	startTime 	10896.3
scalar MyScenario.node[38].veinsmobility 	totalTime 	3.7
scalar MyScenario.node[38].veinsmobility 	stopTime 	10900
scalar MyScenario.node[38].veinsmobility 	minSpeed 	37.031017643142
scalar MyScenario.node[38].veinsmobility 	maxSpeed 	38.062028986136
scalar MyScenario.node[38].veinsmobility 	totalDistance 	138.96693242674
scalar MyScenario.node[38].veinsmobility 	totalCO2Emission 	22.652724549983
scalar MyScenario.node[35].appl 	generatedWSMs 	0
scalar MyScenario.node[35].appl 	receivedWSMs 	0
scalar MyScenario.node[35].appl 	generatedBSMs 	17
scalar MyScenario.node[35].appl 	receivedBSMs 	40
scalar MyScenario.node[35].appl 	generatedWSAs 	0
scalar MyScenario.node[35].appl 	receivedWSAs 	0
scalar MyScenario.node[35].nic.phy80211p 	busyTime 	0.00024910179640719
scalar MyScenario.node[35].nic.mac1609_4 	ReceivedUnicastPackets 	0
scalar MyScenario.node[35].nic.mac1609_4 	ReceivedBroadcasts 	40
scalar MyScenario.node[35].nic.mac1609_4 	SentPackets 	17
scalar MyScenario.node[35].nic.mac1609_4 	SNIRLostPackets 	0
scalar MyScenario.node[35].nic.mac1609_4 	RXTXLostPackets 	0
scalar MyScenario.node[35].nic.mac1609_4 	TotalLostPackets 	0
scalar MyScenario.node[35].nic.mac1609_4 	DroppedPacketsInMac 	0
scalar MyScenario.node[35].nic.mac1609_4 	TooLittleTime 	0
scalar MyScenario.node[35].nic.mac1609_4 	TimesIntoBackoff 	17
scalar MyScenario.node[35].nic.mac1609_4 	SlotsBackoff 	26
scalar MyScenario.node[35].nic.mac1609_4 	NumInternalContention 	0
scalar MyScenario.node[35].nic.mac1609_4 	totalBusyTime 	0.005945
scalar MyScenario.node[35].veinsmobility 	startTime 	10883.3
scalar MyScenario.node[35].veinsmobility 	totalTime 	16.7
scalar MyScenario.node[35].veinsmobility 	stopTime 	10900
scalar MyScenario.node[35].veinsmobility 	minSpeed 	37.079118778617
scalar MyScenario.node[35].veinsmobility 	maxSpeed 	37.217140896656
scalar MyScenario.node[35].veinsmobility 	totalDistance 	619.57494073221
scalar MyScenario.node[35].veinsmobility 	totalCO2Emission 	127.51161573264
scalar MyScenario.node[37].appl 	generatedWSMs 	0
scalar MyScenario.node[37].appl 	receivedWSMs 	0
scalar MyScenario.node[37].appl 	generatedBSMs 	6
scalar MyScenario.node[37].appl 	receivedBSMs 	14
scalar MyScenario.node[37].appl 	generatedWSAs 	0
scalar MyScenario.node[37].appl 	receivedWSAs 	0
scalar MyScenario.node[37].nic.phy80211p 	busyTime 	0.00024677966101695
scalar MyScenario.node[37].nic.mac1609_4 	ReceivedUnicastPackets 	0
scalar MyScenario.node[37].nic.mac1609_4 	ReceivedBroadcasts 	14
scalar MyScenario.node[37].nic.mac1609_4 	SentPackets 	6
scalar MyScenario.node[37].nic.mac1609_4 	SNIRLostPackets 	0
scalar MyScenario.node[37].nic.mac1609_4 	RXTXLostPackets 	0
scalar MyScenario.node[37].nic.mac1609_4 	TotalLostPackets 	0
scalar MyScenario.node[37].nic.mac1609_4 	DroppedPacketsInMac 	0
scalar MyScenario.node[37].nic.mac1609_4 	TooLittleTime 	0
scalar MyScenario.node[37].nic.mac1609_4 	TimesIntoBackoff 	6
scalar MyScenario.node[37].nic.mac1609_4 	SlotsBackoff 	9
scalar MyScenario.node[37].nic.mac1609_4 	NumInternalContention 	0
scalar MyScenario.node[37].nic.mac1609_4 	totalBusyTime 	0.002086
scalar MyScenario.node[37].veinsmobility 	startTime 	10894.1
scalar MyScenario.node[37].veinsmobility 	totalTime 	5.9
scalar MyScenario.node[37].veinsmobility 	stopTime 	10900
scalar MyScenario.node[37].veinsmobility 	minSpeed 	34.163387568397
scalar MyScenario.node[37].veinsmobility 	maxSpeed 	34.288928133575
scalar MyScenario.node[37].veinsmobility 	totalDistance 	201.66520972325
scalar MyScenario.node[37].veinsmobility 	totalCO2Emission 	37.418255327536
scalar MyScenario.node[33].appl 	generatedWSMs 	0
scalar MyScenario.node[33].appl 	receivedWSMs 	0
scalar MyScenario.node[33].appl 	generatedBSMs 	26
scalar MyScenario.node[33].appl 	receivedBSMs 	51
scalar MyScenario.node[33].appl 	generatedWSAs 	0
scalar MyScenario.node[33].appl 	receivedWSAs 	0
scalar MyScenario.node[33].nic.phy80211p 	busyTime 	0.00020015094339623
scalar MyScenario.node[33].nic.mac1609_4 	ReceivedUnicastPackets 	0
scalar MyScenario.node[33].nic.mac1609_4 	ReceivedBroadcasts 	51
scalar MyScenario.node[33].nic.mac1609_4 	SentPackets 	26
scalar MyScenario.node[33].nic.mac1609_4 	SNIRLostPackets 	0
scalar MyScenario.node[33].nic.mac1609_4 	RXTXLostPackets 	3
scalar MyScenario.node[33].nic.mac1609_4 	TotalLostPackets 	3
scalar MyScenario.node[33].nic.mac1609_4 	DroppedPacketsInMac 	0
scalar MyScenario.node[33].nic.mac1609_4 	TooLittleTime 	0
scalar MyScenario.node[33].nic.mac1609_4 	TimesIntoBackoff 	26
scalar MyScenario.node[33].nic.mac1609_4 	SlotsBackoff 	44
scalar MyScenario.node[33].nic.mac1609_4 	NumInternalContention 	0
scalar MyScenario.node[33].nic.mac1609_4 	totalBusyTime 	0.008034
scalar MyScenario.node[33].veinsmobility 	startTime 	10873.5
scalar MyScenario.node[33].veinsmobility 	totalTime 	26.5
scalar MyScenario.node[33].veinsmobility 	stopTime 	10900
scalar MyScenario.node[33].veinsmobility 	minSpeed 	32.575158264743
scalar MyScenario.node[33].veinsmobility 	maxSpeed 	32.704503828107
scalar MyScenario.node[33].veinsmobility 	totalDistance 	865.04679825389
scalar MyScenario.node[33].veinsmobility 	totalCO2Emission 	156.9305093479
scalar MyScenario.node[18].appl 	generatedWSMs 	0
scalar MyScenario.node[18].appl 	receivedWSMs 	0
scalar MyScenario.node[18].appl 	generatedBSMs 	78
scalar MyScenario.node[18].appl 	receivedBSMs 	1
scalar MyScenario.node[18].appl 	generatedWSAs 	0
scalar MyScenario.node[18].appl 	receivedWSAs 	0
scalar MyScenario.node[18].nic.phy80211p 	busyTime 	1.318124207858e-06
scalar MyScenario.node[18].nic.mac1609_4 	ReceivedUnicastPackets 	0
scalar MyScenario.node[18].nic.mac1609_4 	ReceivedBroadcasts 	1
scalar MyScenario.node[18].nic.mac1609_4 	SentPackets 	78
scalar MyScenario.node[18].nic.mac1609_4 	SNIRLostPackets 	0
scalar MyScenario.node[18].nic.mac1609_4 	RXTXLostPackets 	0
scalar MyScenario.node[18].nic.mac1609_4 	TotalLostPackets 	0
scalar MyScenario.node[18].nic.mac1609_4 	DroppedPacketsInMac 	0
scalar MyScenario.node[18].nic.mac1609_4 	TooLittleTime 	0
scalar MyScenario.node[18].nic.mac1609_4 	TimesIntoBackoff 	78
scalar MyScenario.node[18].nic.mac1609_4 	SlotsBackoff 	99
scalar MyScenario.node[18].nic.mac1609_4 	NumInternalContention 	0
scalar MyScenario.node[18].nic.mac1609_4 	totalBusyTime 	0.008294
scalar MyScenario.node[18].veinsmobility 	startTime 	10821.1
scalar MyScenario.node[18].veinsmobility 	totalTime 	78.9
scalar MyScenario.node[18].veinsmobility 	stopTime 	10900
scalar MyScenario.node[18].veinsmobility 	minSpeed 	0
scalar MyScenario.node[18].veinsmobility 	maxSpeed 	15.335794724012
scalar MyScenario.node[18].veinsmobility 	totalDistance 	403.49249820301
scalar MyScenario.node[18].veinsmobility 	totalCO2Emission 	187.50370045035
scalar MyScenario.node[28].appl 	generatedWSMs 	0
scalar MyScenario.node[28].appl 	receivedWSMs 	0
scalar MyScenario.node[28].appl 	generatedBSMs 	56
scalar MyScenario.node[28].appl 	receivedBSMs 	41
scalar MyScenario.node[28].appl 	generatedWSAs 	0
scalar MyScenario.node[28].appl 	receivedWSAs 	0
scalar MyScenario.node[28].nic.phy80211p 	busyTime 	7.5469026548673e-05
scalar MyScenario.node[28].nic.mac1609_4 	ReceivedUnicastPackets 	0
scalar MyScenario.node[28].nic.mac1609_4 	ReceivedBroadcasts 	41
scalar MyScenario.node[28].nic.mac1609_4 	SentPackets 	56
scalar MyScenario.node[28].nic.mac1609_4 	SNIRLostPackets 	0
scalar MyScenario.node[28].nic.mac1609_4 	RXTXLostPackets 	0
scalar MyScenario.node[28].nic.mac1609_4 	TotalLostPackets 	0
scalar MyScenario.node[28].nic.mac1609_4 	DroppedPacketsInMac 	0
scalar MyScenario.node[28].nic.mac1609_4 	TooLittleTime 	0
scalar MyScenario.node[28].nic.mac1609_4 	TimesIntoBackoff 	56
scalar MyScenario.node[28].nic.mac1609_4 	SlotsBackoff 	81
scalar MyScenario.node[28].nic.mac1609_4 	NumInternalContention 	0
scalar MyScenario.node[28].nic.mac1609_4 	totalBusyTime 	0.010144
scalar MyScenario.node[28].veinsmobility 	startTime 	10843.5
scalar MyScenario.node[28].veinsmobility 	totalTime 	56.5
scalar MyScenario.node[28].veinsmobility 	stopTime 	10900
scalar MyScenario.node[28].veinsmobility 	minSpeed 	4.5393767889131e-14
scalar MyScenario.node[28].veinsmobility 	maxSpeed 	20.836348258799
scalar MyScenario.node[28].veinsmobility 	totalDistance 	469.07316037607
scalar MyScenario.node[28].veinsmobility 	totalCO2Emission 	132.20996102028
scalar MyScenario.node[9].appl 	generatedWSMs 	0
scalar MyScenario.node[9].appl 	receivedWSMs 	0
scalar MyScenario.node[9].appl 	generatedBSMs 	100
scalar MyScenario.node[9].appl 	receivedBSMs 	273
scalar MyScenario.node[9].appl 	generatedWSAs 	0
scalar MyScenario.node[9].appl 	receivedWSAs 	0
scalar MyScenario.node[9].nic.phy80211p 	busyTime 	0.00028392
scalar MyScenario.node[9].nic.mac1609_4 	ReceivedUnicastPackets 	0
scalar MyScenario.node[9].nic.mac1609_4 	ReceivedBroadcasts 	273
scalar MyScenario.node[9].nic.mac1609_4 	SentPackets 	100
scalar MyScenario.node[9].nic.mac1609_4 	SNIRLostPackets 	0
scalar MyScenario.node[9].nic.mac1609_4 	RXTXLostPackets 	0
scalar MyScenario.node[9].nic.mac1609_4 	TotalLostPackets 	0
scalar MyScenario.node[9].nic.mac1609_4 	DroppedPacketsInMac 	0
scalar MyScenario.node[9].nic.mac1609_4 	TooLittleTime 	0
scalar MyScenario.node[9].nic.mac1609_4 	TimesIntoBackoff 	100
scalar MyScenario.node[9].nic.mac1609_4 	SlotsBackoff 	162
scalar MyScenario.node[9].nic.mac1609_4 	NumInternalContention 	0
scalar MyScenario.node[9].nic.mac1609_4 	totalBusyTime 	0.038892
scalar MyScenario.node[9].veinsmobility 	startTime 	10800
scalar MyScenario.node[9].veinsmobility 	totalTime 	100
scalar MyScenario.node[9].veinsmobility 	stopTime 	10900
scalar MyScenario.node[9].veinsmobility 	minSpeed 	0
scalar MyScenario.node[9].veinsmobility 	maxSpeed 	14.542254412755
scalar MyScenario.node[9].veinsmobility 	totalDistance 	693.41546808728
scalar MyScenario.node[9].veinsmobility 	totalCO2Emission 	209.21969173795
scalar MyScenario.node[20].appl 	generatedWSMs 	0
scalar MyScenario.node[20].appl 	receivedWSMs 	0
scalar MyScenario.node[20].appl 	generatedBSMs 	72
scalar MyScenario.node[20].appl 	receivedBSMs 	200
scalar MyScenario.node[20].appl 	generatedWSAs 	0
scalar MyScenario.node[20].appl 	receivedWSAs 	0
scalar MyScenario.node[20].nic.phy80211p 	busyTime 	0.00028769017980635
scalar MyScenario.node[20].nic.mac1609_4 	ReceivedUnicastPackets 	0
scalar MyScenario.node[20].nic.mac1609_4 	ReceivedBroadcasts 	200
scalar MyScenario.node[20].nic.mac1609_4 	SentPackets 	72
scalar MyScenario.node[20].nic.mac1609_4 	SNIRLostPackets 	0
scalar MyScenario.node[20].nic.mac1609_4 	RXTXLostPackets 	0
scalar MyScenario.node[20].nic.mac1609_4 	TotalLostPackets 	0
scalar MyScenario.node[20].nic.mac1609_4 	DroppedPacketsInMac 	0
scalar MyScenario.node[20].nic.mac1609_4 	TooLittleTime 	0
scalar MyScenario.node[20].nic.mac1609_4 	TimesIntoBackoff 	72
scalar MyScenario.node[20].nic.mac1609_4 	SlotsBackoff 	117
scalar MyScenario.node[20].nic.mac1609_4 	NumInternalContention 	0
scalar MyScenario.node[20].nic.mac1609_4 	totalBusyTime 	0.02836
scalar MyScenario.node[20].veinsmobility 	startTime 	10827.7
scalar MyScenario.node[20].veinsmobility 	totalTime 	72.3
scalar MyScenario.node[20].veinsmobility 	stopTime 	10900
scalar MyScenario.node[20].veinsmobility 	minSpeed 	4.5363478792567e-14
scalar MyScenario.node[20].veinsmobility 	maxSpeed 	15.245099075774
scalar MyScenario.node[20].veinsmobility 	totalDistance 	292.46945881818
scalar MyScenario.node[20].veinsmobility 	totalCO2Emission 	128.33747986793
scalar MyScenario.node[23].appl 	generatedWSMs 	0
scalar MyScenario.node[23].appl 	receivedWSMs 	0
scalar MyScenario.node[23].appl 	generatedBSMs 	70
scalar MyScenario.node[23].appl 	receivedBSMs 	198
scalar MyScenario.node[23].appl 	generatedWSAs 	0
scalar MyScenario.node[23].appl 	receivedWSAs 	0
scalar MyScenario.node[23].nic.phy80211p 	busyTime 	0.00029125884016973
scalar MyScenario.node[23].nic.mac1609_4 	ReceivedUnicastPackets 	0
scalar MyScenario.node[23].nic.mac1609_4 	ReceivedBroadcasts 	198
scalar MyScenario.node[23].nic.mac1609_4 	SentPackets 	70
scalar MyScenario.node[23].nic.mac1609_4 	SNIRLostPackets 	0
scalar MyScenario.node[23].nic.mac1609_4 	RXTXLostPackets 	0
scalar MyScenario.node[23].nic.mac1609_4 	TotalLostPackets 	0
scalar MyScenario.node[23].nic.mac1609_4 	DroppedPacketsInMac 	0
scalar MyScenario.node[23].nic.mac1609_4 	TooLittleTime 	0
scalar MyScenario.node[23].nic.mac1609_4 	TimesIntoBackoff 	70
scalar MyScenario.node[23].nic.mac1609_4 	SlotsBackoff 	97
scalar MyScenario.node[23].nic.mac1609_4 	NumInternalContention 	0
scalar MyScenario.node[23].nic.mac1609_4 	totalBusyTime 	0.027942
scalar MyScenario.node[23].veinsmobility 	startTime 	10829.3
scalar MyScenario.node[23].veinsmobility 	totalTime 	70.7
scalar MyScenario.node[23].veinsmobility 	stopTime 	10900
scalar MyScenario.node[23].veinsmobility 	minSpeed 	4.5373048795343e-14
scalar MyScenario.node[23].veinsmobility 	maxSpeed 	13.929898250001
scalar MyScenario.node[23].veinsmobility 	totalDistance 	293.8637981126
scalar MyScenario.node[23].veinsmobility 	totalCO2Emission 	122.55910466049
scalar MyScenario.node[36].appl 	generatedWSMs 	0
scalar MyScenario.node[36].appl 	receivedWSMs 	0
scalar MyScenario.node[36].appl 	generatedBSMs 	10
scalar MyScenario.node[36].appl 	receivedBSMs 	3
scalar MyScenario.node[36].appl 	generatedWSAs 	0
scalar MyScenario.node[36].appl 	receivedWSAs 	0
scalar MyScenario.node[36].nic.phy80211p 	busyTime 	3.25e-05
scalar MyScenario.node[36].nic.mac1609_4 	ReceivedUnicastPackets 	0
scalar MyScenario.node[36].nic.mac1609_4 	ReceivedBroadcasts 	3
scalar MyScenario.node[36].nic.mac1609_4 	SentPackets 	10
scalar MyScenario.node[36].nic.mac1609_4 	SNIRLostPackets 	0
scalar MyScenario.node[36].nic.mac1609_4 	RXTXLostPackets 	0
scalar MyScenario.node[36].nic.mac1609_4 	TotalLostPackets 	0
scalar MyScenario.node[36].nic.mac1609_4 	DroppedPacketsInMac 	0
scalar MyScenario.node[36].nic.mac1609_4 	TooLittleTime 	0
scalar MyScenario.node[36].nic.mac1609_4 	TimesIntoBackoff 	10
scalar MyScenario.node[36].nic.mac1609_4 	SlotsBackoff 	13
scalar MyScenario.node[36].nic.mac1609_4 	NumInternalContention 	0
scalar MyScenario.node[36].nic.mac1609_4 	totalBusyTime 	0.001362
scalar MyScenario.node[36].veinsmobility 	startTime 	10890.4
scalar MyScenario.node[36].veinsmobility 	totalTime 	9.6
scalar MyScenario.node[36].veinsmobility 	stopTime 	10900
scalar MyScenario.node[36].veinsmobility 	minSpeed 	15.061009486019
scalar MyScenario.node[36].veinsmobility 	maxSpeed 	15.174863845612
scalar MyScenario.node[36].veinsmobility 	totalDistance 	145.73053556765
scalar MyScenario.node[36].veinsmobility 	totalCO2Emission 	22.428597219762
scalar MyScenario.node[11].appl 	generatedWSMs 	0
scalar MyScenario.node[11].appl 	receivedWSMs 	0
scalar MyScenario.node[11].appl 	generatedBSMs 	100
scalar MyScenario.node[11].appl 	receivedBSMs 	263
scalar MyScenario.node[11].appl 	generatedWSAs 	0
scalar MyScenario.node[11].appl 	receivedWSAs 	0
scalar MyScenario.node[11].nic.phy80211p 	busyTime 	0.00027352
scalar MyScenario.node[11].nic.mac1609_4 	ReceivedUnicastPackets 	0
scalar MyScenario.node[11].nic.mac1609_4 	ReceivedBroadcasts 	263
scalar MyScenario.node[11].nic.mac1609_4 	SentPackets 	100
scalar MyScenario.node[11].nic.mac1609_4 	SNIRLostPackets 	0
scalar MyScenario.node[11].nic.mac1609_4 	RXTXLostPackets 	0
scalar MyScenario.node[11].nic.mac1609_4 	TotalLostPackets 	0
scalar MyScenario.node[11].nic.mac1609_4 	DroppedPacketsInMac 	0
scalar MyScenario.node[11].nic.mac1609_4 	TooLittleTime 	0
scalar MyScenario.node[11].nic.mac1609_4 	TimesIntoBackoff 	100
scalar MyScenario.node[11].nic.mac1609_4 	SlotsBackoff 	144
scalar MyScenario.node[11].nic.mac1609_4 	NumInternalContention 	0
scalar MyScenario.node[11].nic.mac1609_4 	totalBusyTime 	0.037852
scalar MyScenario.node[11].veinsmobility 	startTime 	10800
scalar MyScenario.node[11].veinsmobility 	totalTime 	100
scalar MyScenario.node[11].veinsmobility 	stopTime 	10900
scalar MyScenario.node[11].veinsmobility 	minSpeed 	0
scalar MyScenario.node[11].veinsmobility 	maxSpeed 	16.481861625416
scalar MyScenario.node[11].veinsmobility 	totalDistance 	711.88229410732
scalar MyScenario.node[11].veinsmobility 	totalCO2Emission 	231.10557515708
