version 2
run AttackerType16-16-20180205-19:48:52-107826
attr configname AttackerType16
attr datetime 20180205-19:48:52
attr experiment AttackerType16
attr inifile omnetpp_16.ini
attr iterationvars "$start=5, $0=0.1"
attr iterationvarsf start=5,0.1-
attr measurement "$start=5, $0=0.1"
attr network MyScenario
attr processid 107826
attr repetition 1
attr replication #1
attr resultdir results
attr runnumber 16
attr seedset 1
attr start 5
param **.**.**.debug false
param **.**.nic.**.debug false
param **.coreDebug false
param **.debug false
param *.**.nic.mac1609_4.bitrate 6Mbps
param *.**.nic.mac1609_4.txPower 20mW
param *.**.nic.mac1609_4.useServiceChannel false
param *.**.nic.phy80211p.analogueModels "xmldoc(\"config.xml\")"
param *.**.nic.phy80211p.antenna "xmldoc(\"antenna.xml\", \"/root/Antenna[@id='monopole']\")"
param *.**.nic.phy80211p.decider "xmldoc(\"config.xml\")"
param *.**.nic.phy80211p.sensitivity -89dBm
param *.**.nic.phy80211p.thermalNoise -110dBm
param *.**.nic.phy80211p.usePropagationDelay true
param *.**.nic.phy80211p.useThermalNoise true
param *.**.veinsmobility.x 0
param *.**.veinsmobility.y 0
param *.**.veinsmobility.z 1.895
param *.**.veinsmobilityType.debug false
param *.annotations.draw false
param *.connectionManager.drawMaxIntfDist false
param *.connectionManager.maxInterfDist 2600m
param *.connectionManager.sendDirect true
param *.manager.autoShutdown true
param *.manager.configFile "\"dua.static.sumocfg\""
param *.manager.firstStepAt 5h
param *.manager.host "\"localhost\""
param *.manager.launchConfig "xmldoc(\"luxembourg.launchd.xml\")"
param *.manager.roiRects "\"2300,5400-6300,6300\""
param *.manager.seed 1
param *.manager.updateInterval 0.1s
param *.node[*].appl.attackerProbability 0.1
param *.node[*].appl.attackerType 16
param *.node[*].appl.beaconInterval 1s
param *.node[*].appl.dataOnSch false
param *.node[*].appl.headerLength "80 bit"
param *.node[*].appl.sendBeacons true
param *.node[*].appl.traceGroundTruthJSONFile "\"GroundTruthJSONlog\""
param *.node[*].appl.traceJSONFile "\"JSONlog-\""
param *.node[*].applType "\"AttackerApp\""
param *.obstacles.debug false
param *.obstacles.obstacles "xmldoc(\"config.xml\", \"//AnalogueModel[@type='SimpleObstacleShadowing']/obstacles\")"
param *.playgroundSizeX 13640m
param *.playgroundSizeY 11500m
param *.playgroundSizeZ 50m

scalar _runattrs_ 	start 	5
scalar MyScenario.node[2].appl 	generatedWSMs 	0
scalar MyScenario.node[2].appl 	receivedWSMs 	0
scalar MyScenario.node[2].appl 	generatedBSMs 	1
scalar MyScenario.node[2].appl 	receivedBSMs 	2
scalar MyScenario.node[2].appl 	generatedWSAs 	0
scalar MyScenario.node[2].appl 	receivedWSAs 	0
scalar MyScenario.node[2].nic.phy80211p 	busyTime 	0.00052
scalar MyScenario.node[2].nic.mac1609_4 	ReceivedUnicastPackets 	0
scalar MyScenario.node[2].nic.mac1609_4 	ReceivedBroadcasts 	2
scalar MyScenario.node[2].nic.mac1609_4 	SentPackets 	1
scalar MyScenario.node[2].nic.mac1609_4 	SNIRLostPackets 	0
scalar MyScenario.node[2].nic.mac1609_4 	RXTXLostPackets 	0
scalar MyScenario.node[2].nic.mac1609_4 	TotalLostPackets 	0
scalar MyScenario.node[2].nic.mac1609_4 	DroppedPacketsInMac 	0
scalar MyScenario.node[2].nic.mac1609_4 	TooLittleTime 	0
scalar MyScenario.node[2].nic.mac1609_4 	TimesIntoBackoff 	1
scalar MyScenario.node[2].nic.mac1609_4 	SlotsBackoff 	2
scalar MyScenario.node[2].nic.mac1609_4 	NumInternalContention 	0
scalar MyScenario.node[2].nic.mac1609_4 	totalBusyTime 	0.000313
scalar MyScenario.node[2].veinsmobility 	startTime 	18000
scalar MyScenario.node[2].veinsmobility 	totalTime 	0.3
scalar MyScenario.node[2].veinsmobility 	stopTime 	18000.4
scalar MyScenario.node[2].veinsmobility 	minSpeed 	31.08634401852
scalar MyScenario.node[2].veinsmobility 	maxSpeed 	31.123384279513
scalar MyScenario.node[2].veinsmobility 	totalDistance 	9.3218396396722
scalar MyScenario.node[2].veinsmobility 	totalCO2Emission 	1.057972219771
scalar MyScenario.node[1].appl 	generatedWSMs 	0
scalar MyScenario.node[1].appl 	receivedWSMs 	0
scalar MyScenario.node[1].appl 	generatedBSMs 	2
scalar MyScenario.node[1].appl 	receivedBSMs 	8
scalar MyScenario.node[1].appl 	generatedWSAs 	0
scalar MyScenario.node[1].appl 	receivedWSAs 	0
scalar MyScenario.node[1].nic.phy80211p 	busyTime 	0.00048941176470588
scalar MyScenario.node[1].nic.mac1609_4 	ReceivedUnicastPackets 	0
scalar MyScenario.node[1].nic.mac1609_4 	ReceivedBroadcasts 	8
scalar MyScenario.node[1].nic.mac1609_4 	SentPackets 	2
scalar MyScenario.node[1].nic.mac1609_4 	SNIRLostPackets 	0
scalar MyScenario.node[1].nic.mac1609_4 	RXTXLostPackets 	0
scalar MyScenario.node[1].nic.mac1609_4 	TotalLostPackets 	0
scalar MyScenario.node[1].nic.mac1609_4 	DroppedPacketsInMac 	0
scalar MyScenario.node[1].nic.mac1609_4 	TooLittleTime 	0
scalar MyScenario.node[1].nic.mac1609_4 	TimesIntoBackoff 	2
scalar MyScenario.node[1].nic.mac1609_4 	SlotsBackoff 	3
scalar MyScenario.node[1].nic.mac1609_4 	NumInternalContention 	0
scalar MyScenario.node[1].nic.mac1609_4 	totalBusyTime 	0.001042
scalar MyScenario.node[1].veinsmobility 	startTime 	18000
scalar MyScenario.node[1].veinsmobility 	totalTime 	1.6
scalar MyScenario.node[1].veinsmobility 	stopTime 	18001.7
scalar MyScenario.node[1].veinsmobility 	minSpeed 	31.832108295014
scalar MyScenario.node[1].veinsmobility 	maxSpeed 	31.990072118294
scalar MyScenario.node[1].veinsmobility 	totalDistance 	51.055110082181
scalar MyScenario.node[1].veinsmobility 	totalCO2Emission 	7.8835865137248
scalar MyScenario.node[34].appl 	generatedWSMs 	0
scalar MyScenario.node[34].appl 	receivedWSMs 	0
scalar MyScenario.node[34].appl 	generatedBSMs 	3
scalar MyScenario.node[34].appl 	receivedBSMs 	8
scalar MyScenario.node[34].appl 	generatedWSAs 	0
scalar MyScenario.node[34].appl 	receivedWSAs 	0
scalar MyScenario.node[34].nic.phy80211p 	busyTime 	0.00026838709677419
scalar MyScenario.node[34].nic.mac1609_4 	ReceivedUnicastPackets 	0
scalar MyScenario.node[34].nic.mac1609_4 	ReceivedBroadcasts 	8
scalar MyScenario.node[34].nic.mac1609_4 	SentPackets 	3
scalar MyScenario.node[34].nic.mac1609_4 	SNIRLostPackets 	0
scalar MyScenario.node[34].nic.mac1609_4 	RXTXLostPackets 	0
scalar MyScenario.node[34].nic.mac1609_4 	TotalLostPackets 	0
scalar MyScenario.node[34].nic.mac1609_4 	DroppedPacketsInMac 	0
scalar MyScenario.node[34].nic.mac1609_4 	TooLittleTime 	0
scalar MyScenario.node[34].nic.mac1609_4 	TimesIntoBackoff 	3
scalar MyScenario.node[34].nic.mac1609_4 	SlotsBackoff 	2
scalar MyScenario.node[34].nic.mac1609_4 	NumInternalContention 	0
scalar MyScenario.node[34].nic.mac1609_4 	totalBusyTime 	0.001147
scalar MyScenario.node[34].veinsmobility 	startTime 	18000
scalar MyScenario.node[34].veinsmobility 	totalTime 	3
scalar MyScenario.node[34].veinsmobility 	stopTime 	18003.1
scalar MyScenario.node[34].veinsmobility 	minSpeed 	0.26725395575585
scalar MyScenario.node[34].veinsmobility 	maxSpeed 	6.8122513191552
scalar MyScenario.node[34].veinsmobility 	totalDistance 	10.867834405464
scalar MyScenario.node[34].veinsmobility 	totalCO2Emission 	9.5316782391565
scalar MyScenario.node[19].appl 	generatedWSMs 	0
scalar MyScenario.node[19].appl 	receivedWSMs 	0
scalar MyScenario.node[19].appl 	generatedBSMs 	4
scalar MyScenario.node[19].appl 	receivedBSMs 	16
scalar MyScenario.node[19].appl 	generatedWSAs 	0
scalar MyScenario.node[19].appl 	receivedWSAs 	0
scalar MyScenario.node[19].nic.phy80211p 	busyTime 	0.00052
scalar MyScenario.node[19].nic.mac1609_4 	ReceivedUnicastPackets 	0
scalar MyScenario.node[19].nic.mac1609_4 	ReceivedBroadcasts 	16
scalar MyScenario.node[19].nic.mac1609_4 	SentPackets 	4
scalar MyScenario.node[19].nic.mac1609_4 	SNIRLostPackets 	0
scalar MyScenario.node[19].nic.mac1609_4 	RXTXLostPackets 	0
scalar MyScenario.node[19].nic.mac1609_4 	TotalLostPackets 	0
scalar MyScenario.node[19].nic.mac1609_4 	DroppedPacketsInMac 	0
scalar MyScenario.node[19].nic.mac1609_4 	TooLittleTime 	0
scalar MyScenario.node[19].nic.mac1609_4 	TimesIntoBackoff 	4
scalar MyScenario.node[19].nic.mac1609_4 	SlotsBackoff 	5
scalar MyScenario.node[19].nic.mac1609_4 	NumInternalContention 	0
scalar MyScenario.node[19].nic.mac1609_4 	totalBusyTime 	0.002084
scalar MyScenario.node[19].veinsmobility 	startTime 	18000
scalar MyScenario.node[19].veinsmobility 	totalTime 	3.1
scalar MyScenario.node[19].veinsmobility 	stopTime 	18003.2
scalar MyScenario.node[19].veinsmobility 	minSpeed 	33.575069462905
scalar MyScenario.node[19].veinsmobility 	maxSpeed 	33.723059568369
scalar MyScenario.node[19].veinsmobility 	totalDistance 	104.19096702939
scalar MyScenario.node[19].veinsmobility 	totalCO2Emission 	18.576662987553
scalar MyScenario.node[20].appl 	generatedWSMs 	0
scalar MyScenario.node[20].appl 	receivedWSMs 	0
scalar MyScenario.node[20].appl 	generatedBSMs 	5
scalar MyScenario.node[20].appl 	receivedBSMs 	0
scalar MyScenario.node[20].appl 	generatedWSAs 	0
scalar MyScenario.node[20].appl 	receivedWSAs 	0
scalar MyScenario.node[20].nic.phy80211p 	busyTime 	0
scalar MyScenario.node[20].nic.mac1609_4 	ReceivedUnicastPackets 	0
scalar MyScenario.node[20].nic.mac1609_4 	ReceivedBroadcasts 	0
scalar MyScenario.node[20].nic.mac1609_4 	SentPackets 	5
scalar MyScenario.node[20].nic.mac1609_4 	SNIRLostPackets 	0
scalar MyScenario.node[20].nic.mac1609_4 	RXTXLostPackets 	0
scalar MyScenario.node[20].nic.mac1609_4 	TotalLostPackets 	0
scalar MyScenario.node[20].nic.mac1609_4 	DroppedPacketsInMac 	0
scalar MyScenario.node[20].nic.mac1609_4 	TooLittleTime 	0
scalar MyScenario.node[20].nic.mac1609_4 	TimesIntoBackoff 	5
scalar MyScenario.node[20].nic.mac1609_4 	SlotsBackoff 	7
scalar MyScenario.node[20].nic.mac1609_4 	NumInternalContention 	0
scalar MyScenario.node[20].nic.mac1609_4 	totalBusyTime 	0.000525
scalar MyScenario.node[20].veinsmobility 	startTime 	18000
scalar MyScenario.node[20].veinsmobility 	totalTime 	5
scalar MyScenario.node[20].veinsmobility 	stopTime 	18005.1
scalar MyScenario.node[20].veinsmobility 	minSpeed 	7.8528295896901
scalar MyScenario.node[20].veinsmobility 	maxSpeed 	12.635726051388
scalar MyScenario.node[20].veinsmobility 	totalDistance 	57.294892629533
scalar MyScenario.node[20].veinsmobility 	totalCO2Emission 	21.93141394131
scalar MyScenario.node[27].appl 	generatedWSMs 	0
scalar MyScenario.node[27].appl 	receivedWSMs 	0
scalar MyScenario.node[27].appl 	generatedBSMs 	8
scalar MyScenario.node[27].appl 	receivedBSMs 	13
scalar MyScenario.node[27].appl 	generatedWSAs 	0
scalar MyScenario.node[27].appl 	receivedWSAs 	0
scalar MyScenario.node[27].nic.phy80211p 	busyTime 	0.00018520547945205
scalar MyScenario.node[27].nic.mac1609_4 	ReceivedUnicastPackets 	0
scalar MyScenario.node[27].nic.mac1609_4 	ReceivedBroadcasts 	13
scalar MyScenario.node[27].nic.mac1609_4 	SentPackets 	8
scalar MyScenario.node[27].nic.mac1609_4 	SNIRLostPackets 	0
scalar MyScenario.node[27].nic.mac1609_4 	RXTXLostPackets 	0
scalar MyScenario.node[27].nic.mac1609_4 	TotalLostPackets 	0
scalar MyScenario.node[27].nic.mac1609_4 	DroppedPacketsInMac 	0
scalar MyScenario.node[27].nic.mac1609_4 	TooLittleTime 	0
scalar MyScenario.node[27].nic.mac1609_4 	TimesIntoBackoff 	8
scalar MyScenario.node[27].nic.mac1609_4 	SlotsBackoff 	11
scalar MyScenario.node[27].nic.mac1609_4 	NumInternalContention 	0
scalar MyScenario.node[27].nic.mac1609_4 	totalBusyTime 	0.002192
scalar MyScenario.node[27].veinsmobility 	startTime 	18000
scalar MyScenario.node[27].veinsmobility 	totalTime 	7.2
scalar MyScenario.node[27].veinsmobility 	stopTime 	18007.3
scalar MyScenario.node[27].veinsmobility 	minSpeed 	1.3574133098849
scalar MyScenario.node[27].veinsmobility 	maxSpeed 	13.010340505372
scalar MyScenario.node[27].veinsmobility 	totalDistance 	77.811434521004
scalar MyScenario.node[27].veinsmobility 	totalCO2Emission 	12.524499964287
scalar MyScenario.node[31].appl 	generatedWSMs 	0
scalar MyScenario.node[31].appl 	receivedWSMs 	0
scalar MyScenario.node[31].appl 	generatedBSMs 	9
scalar MyScenario.node[31].appl 	receivedBSMs 	39
scalar MyScenario.node[31].appl 	generatedWSAs 	0
scalar MyScenario.node[31].appl 	receivedWSAs 	0
scalar MyScenario.node[31].nic.phy80211p 	busyTime 	0.00046090909090909
scalar MyScenario.node[31].nic.mac1609_4 	ReceivedUnicastPackets 	0
scalar MyScenario.node[31].nic.mac1609_4 	ReceivedBroadcasts 	39
scalar MyScenario.node[31].nic.mac1609_4 	SentPackets 	9
scalar MyScenario.node[31].nic.mac1609_4 	SNIRLostPackets 	0
scalar MyScenario.node[31].nic.mac1609_4 	RXTXLostPackets 	0
scalar MyScenario.node[31].nic.mac1609_4 	TotalLostPackets 	0
scalar MyScenario.node[31].nic.mac1609_4 	DroppedPacketsInMac 	0
scalar MyScenario.node[31].nic.mac1609_4 	TooLittleTime 	0
scalar MyScenario.node[31].nic.mac1609_4 	TimesIntoBackoff 	9
scalar MyScenario.node[31].nic.mac1609_4 	SlotsBackoff 	12
scalar MyScenario.node[31].nic.mac1609_4 	NumInternalContention 	0
scalar MyScenario.node[31].nic.mac1609_4 	totalBusyTime 	0.005001
scalar MyScenario.node[31].veinsmobility 	startTime 	18000
scalar MyScenario.node[31].veinsmobility 	totalTime 	8.7
scalar MyScenario.node[31].veinsmobility 	stopTime 	18008.8
scalar MyScenario.node[31].veinsmobility 	minSpeed 	29.883102260856
scalar MyScenario.node[31].veinsmobility 	maxSpeed 	29.999668021984
scalar MyScenario.node[31].veinsmobility 	totalDistance 	260.75983453365
scalar MyScenario.node[31].veinsmobility 	totalCO2Emission 	43.882880001865
scalar MyScenario.node[16].appl 	generatedWSMs 	0
scalar MyScenario.node[16].appl 	receivedWSMs 	0
scalar MyScenario.node[16].appl 	generatedBSMs 	11
scalar MyScenario.node[16].appl 	receivedBSMs 	25
scalar MyScenario.node[16].appl 	generatedWSAs 	0
scalar MyScenario.node[16].appl 	receivedWSAs 	0
scalar MyScenario.node[16].nic.phy80211p 	busyTime 	0.00024761904761905
scalar MyScenario.node[16].nic.mac1609_4 	ReceivedUnicastPackets 	0
scalar MyScenario.node[16].nic.mac1609_4 	ReceivedBroadcasts 	25
scalar MyScenario.node[16].nic.mac1609_4 	SentPackets 	11
scalar MyScenario.node[16].nic.mac1609_4 	SNIRLostPackets 	0
scalar MyScenario.node[16].nic.mac1609_4 	RXTXLostPackets 	0
scalar MyScenario.node[16].nic.mac1609_4 	TotalLostPackets 	0
scalar MyScenario.node[16].nic.mac1609_4 	DroppedPacketsInMac 	0
scalar MyScenario.node[16].nic.mac1609_4 	TooLittleTime 	0
scalar MyScenario.node[16].nic.mac1609_4 	TimesIntoBackoff 	11
scalar MyScenario.node[16].nic.mac1609_4 	SlotsBackoff 	20
scalar MyScenario.node[16].nic.mac1609_4 	NumInternalContention 	0
scalar MyScenario.node[16].nic.mac1609_4 	totalBusyTime 	0.003755
scalar MyScenario.node[16].veinsmobility 	startTime 	18000
scalar MyScenario.node[16].veinsmobility 	totalTime 	10.4
scalar MyScenario.node[16].veinsmobility 	stopTime 	18010.5
scalar MyScenario.node[16].veinsmobility 	minSpeed 	0.24896660989993
scalar MyScenario.node[16].veinsmobility 	maxSpeed 	15.643249850642
scalar MyScenario.node[16].veinsmobility 	totalDistance 	102.87446661394
scalar MyScenario.node[16].veinsmobility 	totalCO2Emission 	48.137244274087
scalar MyScenario.node[29].appl 	generatedWSMs 	0
scalar MyScenario.node[29].appl 	receivedWSMs 	0
scalar MyScenario.node[29].appl 	generatedBSMs 	11
scalar MyScenario.node[29].appl 	receivedBSMs 	28
scalar MyScenario.node[29].appl 	generatedWSAs 	0
scalar MyScenario.node[29].appl 	receivedWSAs 	0
scalar MyScenario.node[29].nic.phy80211p 	busyTime 	0.00026234234234234
scalar MyScenario.node[29].nic.mac1609_4 	ReceivedUnicastPackets 	0
scalar MyScenario.node[29].nic.mac1609_4 	ReceivedBroadcasts 	28
scalar MyScenario.node[29].nic.mac1609_4 	SentPackets 	11
scalar MyScenario.node[29].nic.mac1609_4 	SNIRLostPackets 	0
scalar MyScenario.node[29].nic.mac1609_4 	RXTXLostPackets 	0
scalar MyScenario.node[29].nic.mac1609_4 	TotalLostPackets 	0
scalar MyScenario.node[29].nic.mac1609_4 	DroppedPacketsInMac 	0
scalar MyScenario.node[29].nic.mac1609_4 	TooLittleTime 	0
scalar MyScenario.node[29].nic.mac1609_4 	TimesIntoBackoff 	11
scalar MyScenario.node[29].nic.mac1609_4 	SlotsBackoff 	11
scalar MyScenario.node[29].nic.mac1609_4 	NumInternalContention 	0
scalar MyScenario.node[29].nic.mac1609_4 	totalBusyTime 	0.004067
scalar MyScenario.node[29].veinsmobility 	startTime 	18000
scalar MyScenario.node[29].veinsmobility 	totalTime 	11
scalar MyScenario.node[29].veinsmobility 	stopTime 	18011.1
scalar MyScenario.node[29].veinsmobility 	minSpeed 	0.29397525900514
scalar MyScenario.node[29].veinsmobility 	maxSpeed 	14.872196424645
scalar MyScenario.node[29].veinsmobility 	totalDistance 	119.39747033905
scalar MyScenario.node[29].veinsmobility 	totalCO2Emission 	48.682262824241
scalar MyScenario.node[35].appl 	generatedWSMs 	0
scalar MyScenario.node[35].appl 	receivedWSMs 	0
scalar MyScenario.node[35].appl 	generatedBSMs 	13
scalar MyScenario.node[35].appl 	receivedBSMs 	35
scalar MyScenario.node[35].appl 	generatedWSAs 	0
scalar MyScenario.node[35].appl 	receivedWSAs 	0
scalar MyScenario.node[35].nic.phy80211p 	busyTime 	0.00029593495934959
scalar MyScenario.node[35].nic.mac1609_4 	ReceivedUnicastPackets 	0
scalar MyScenario.node[35].nic.mac1609_4 	ReceivedBroadcasts 	35
scalar MyScenario.node[35].nic.mac1609_4 	SentPackets 	13
scalar MyScenario.node[35].nic.mac1609_4 	SNIRLostPackets 	0
scalar MyScenario.node[35].nic.mac1609_4 	RXTXLostPackets 	0
scalar MyScenario.node[35].nic.mac1609_4 	TotalLostPackets 	0
scalar MyScenario.node[35].nic.mac1609_4 	DroppedPacketsInMac 	0
scalar MyScenario.node[35].nic.mac1609_4 	TooLittleTime 	0
scalar MyScenario.node[35].nic.mac1609_4 	TimesIntoBackoff 	13
scalar MyScenario.node[35].nic.mac1609_4 	SlotsBackoff 	19
scalar MyScenario.node[35].nic.mac1609_4 	NumInternalContention 	0
scalar MyScenario.node[35].nic.mac1609_4 	totalBusyTime 	0.005005
scalar MyScenario.node[35].veinsmobility 	startTime 	18000
scalar MyScenario.node[35].veinsmobility 	totalTime 	12.2
scalar MyScenario.node[35].veinsmobility 	stopTime 	18012.3
scalar MyScenario.node[35].veinsmobility 	minSpeed 	3.3709926952223
scalar MyScenario.node[35].veinsmobility 	maxSpeed 	16.585364671185
scalar MyScenario.node[35].veinsmobility 	totalDistance 	131.07421912335
scalar MyScenario.node[35].veinsmobility 	totalCO2Emission 	40.212585242851
scalar MyScenario.node[23].appl 	generatedWSMs 	0
scalar MyScenario.node[23].appl 	receivedWSMs 	0
scalar MyScenario.node[23].appl 	generatedBSMs 	14
scalar MyScenario.node[23].appl 	receivedBSMs 	160
scalar MyScenario.node[23].appl 	generatedWSAs 	0
scalar MyScenario.node[23].appl 	receivedWSAs 	0
scalar MyScenario.node[23].nic.phy80211p 	busyTime 	0.0011971223021583
scalar MyScenario.node[23].nic.mac1609_4 	ReceivedUnicastPackets 	0
scalar MyScenario.node[23].nic.mac1609_4 	ReceivedBroadcasts 	160
scalar MyScenario.node[23].nic.mac1609_4 	SentPackets 	14
scalar MyScenario.node[23].nic.mac1609_4 	SNIRLostPackets 	0
scalar MyScenario.node[23].nic.mac1609_4 	RXTXLostPackets 	0
scalar MyScenario.node[23].nic.mac1609_4 	TotalLostPackets 	0
scalar MyScenario.node[23].nic.mac1609_4 	DroppedPacketsInMac 	0
scalar MyScenario.node[23].nic.mac1609_4 	TooLittleTime 	0
scalar MyScenario.node[23].nic.mac1609_4 	TimesIntoBackoff 	14
scalar MyScenario.node[23].nic.mac1609_4 	SlotsBackoff 	13
scalar MyScenario.node[23].nic.mac1609_4 	NumInternalContention 	0
scalar MyScenario.node[23].nic.mac1609_4 	totalBusyTime 	0.01811
scalar MyScenario.node[23].veinsmobility 	startTime 	18000
scalar MyScenario.node[23].veinsmobility 	totalTime 	13.8
scalar MyScenario.node[23].veinsmobility 	stopTime 	18013.9
scalar MyScenario.node[23].veinsmobility 	minSpeed 	3.4414114975238
scalar MyScenario.node[23].veinsmobility 	maxSpeed 	18.734519958486
scalar MyScenario.node[23].veinsmobility 	totalDistance 	149.84456836234
scalar MyScenario.node[23].veinsmobility 	totalCO2Emission 	65.583086595813
scalar MyScenario.node[25].appl 	generatedWSMs 	0
scalar MyScenario.node[25].appl 	receivedWSMs 	0
scalar MyScenario.node[25].appl 	generatedBSMs 	19
scalar MyScenario.node[25].appl 	receivedBSMs 	11
scalar MyScenario.node[25].appl 	generatedWSAs 	0
scalar MyScenario.node[25].appl 	receivedWSAs 	0
scalar MyScenario.node[25].nic.phy80211p 	busyTime 	5.8969072164948e-05
scalar MyScenario.node[25].nic.mac1609_4 	ReceivedUnicastPackets 	0
scalar MyScenario.node[25].nic.mac1609_4 	ReceivedBroadcasts 	11
scalar MyScenario.node[25].nic.mac1609_4 	SentPackets 	19
scalar MyScenario.node[25].nic.mac1609_4 	SNIRLostPackets 	0
scalar MyScenario.node[25].nic.mac1609_4 	RXTXLostPackets 	0
scalar MyScenario.node[25].nic.mac1609_4 	TotalLostPackets 	0
scalar MyScenario.node[25].nic.mac1609_4 	DroppedPacketsInMac 	0
scalar MyScenario.node[25].nic.mac1609_4 	TooLittleTime 	0
scalar MyScenario.node[25].nic.mac1609_4 	TimesIntoBackoff 	19
scalar MyScenario.node[25].nic.mac1609_4 	SlotsBackoff 	25
scalar MyScenario.node[25].nic.mac1609_4 	NumInternalContention 	0
scalar MyScenario.node[25].nic.mac1609_4 	totalBusyTime 	0.003139
scalar MyScenario.node[25].veinsmobility 	startTime 	18000
scalar MyScenario.node[25].veinsmobility 	totalTime 	19.3
scalar MyScenario.node[25].veinsmobility 	stopTime 	18019.4
scalar MyScenario.node[25].veinsmobility 	minSpeed 	0.25030531072966
scalar MyScenario.node[25].veinsmobility 	maxSpeed 	15.133063239925
scalar MyScenario.node[25].veinsmobility 	totalDistance 	235.0949928139
scalar MyScenario.node[25].veinsmobility 	totalCO2Emission 	69.77964284542
scalar MyScenario.node[3].appl 	generatedWSMs 	0
scalar MyScenario.node[3].appl 	receivedWSMs 	0
scalar MyScenario.node[3].appl 	generatedBSMs 	20
scalar MyScenario.node[3].appl 	receivedBSMs 	249
scalar MyScenario.node[3].appl 	generatedWSAs 	0
scalar MyScenario.node[3].appl 	receivedWSAs 	0
scalar MyScenario.node[3].nic.phy80211p 	busyTime 	0.0012671844660194
scalar MyScenario.node[3].nic.mac1609_4 	ReceivedUnicastPackets 	0
scalar MyScenario.node[3].nic.mac1609_4 	ReceivedBroadcasts 	249
scalar MyScenario.node[3].nic.mac1609_4 	SentPackets 	20
scalar MyScenario.node[3].nic.mac1609_4 	SNIRLostPackets 	2
scalar MyScenario.node[3].nic.mac1609_4 	RXTXLostPackets 	0
scalar MyScenario.node[3].nic.mac1609_4 	TotalLostPackets 	2
scalar MyScenario.node[3].nic.mac1609_4 	DroppedPacketsInMac 	0
scalar MyScenario.node[3].nic.mac1609_4 	TooLittleTime 	0
scalar MyScenario.node[3].nic.mac1609_4 	TimesIntoBackoff 	20
scalar MyScenario.node[3].nic.mac1609_4 	SlotsBackoff 	28
scalar MyScenario.node[3].nic.mac1609_4 	NumInternalContention 	0
scalar MyScenario.node[3].nic.mac1609_4 	totalBusyTime 	0.028204
scalar MyScenario.node[3].veinsmobility 	startTime 	18000
scalar MyScenario.node[3].veinsmobility 	totalTime 	20.5
scalar MyScenario.node[3].veinsmobility 	stopTime 	18020.6
scalar MyScenario.node[3].veinsmobility 	minSpeed 	27.563822016655
scalar MyScenario.node[3].veinsmobility 	maxSpeed 	27.693121194182
scalar MyScenario.node[3].veinsmobility 	totalDistance 	566.39741171164
scalar MyScenario.node[3].veinsmobility 	totalCO2Emission 	96.085147689655
scalar MyScenario.node[52].appl 	generatedWSMs 	0
scalar MyScenario.node[52].appl 	receivedWSMs 	0
scalar MyScenario.node[52].appl 	generatedBSMs 	14
scalar MyScenario.node[52].appl 	receivedBSMs 	31
scalar MyScenario.node[52].appl 	generatedWSAs 	0
scalar MyScenario.node[52].appl 	receivedWSAs 	0
scalar MyScenario.node[52].nic.phy80211p 	busyTime 	0.00024610687022901
scalar MyScenario.node[52].nic.mac1609_4 	ReceivedUnicastPackets 	0
scalar MyScenario.node[52].nic.mac1609_4 	ReceivedBroadcasts 	31
scalar MyScenario.node[52].nic.mac1609_4 	SentPackets 	14
scalar MyScenario.node[52].nic.mac1609_4 	SNIRLostPackets 	0
scalar MyScenario.node[52].nic.mac1609_4 	RXTXLostPackets 	0
scalar MyScenario.node[52].nic.mac1609_4 	TotalLostPackets 	0
scalar MyScenario.node[52].nic.mac1609_4 	DroppedPacketsInMac 	0
scalar MyScenario.node[52].nic.mac1609_4 	TooLittleTime 	0
scalar MyScenario.node[52].nic.mac1609_4 	TimesIntoBackoff 	14
scalar MyScenario.node[52].nic.mac1609_4 	SlotsBackoff 	21
scalar MyScenario.node[52].nic.mac1609_4 	NumInternalContention 	0
scalar MyScenario.node[52].nic.mac1609_4 	totalBusyTime 	0.004694
scalar MyScenario.node[52].veinsmobility 	startTime 	18007.5
scalar MyScenario.node[52].veinsmobility 	totalTime 	13
scalar MyScenario.node[52].veinsmobility 	stopTime 	18020.6
scalar MyScenario.node[52].veinsmobility 	minSpeed 	14.47546647304
scalar MyScenario.node[52].veinsmobility 	maxSpeed 	14.603964048936
scalar MyScenario.node[52].veinsmobility 	totalDistance 	189.01544828976
scalar MyScenario.node[52].veinsmobility 	totalCO2Emission 	30.675437787306
scalar MyScenario.node[12].appl 	generatedWSMs 	0
scalar MyScenario.node[12].appl 	receivedWSMs 	0
scalar MyScenario.node[12].appl 	generatedBSMs 	23
scalar MyScenario.node[12].appl 	receivedBSMs 	66
scalar MyScenario.node[12].appl 	generatedWSAs 	0
scalar MyScenario.node[12].appl 	receivedWSAs 	0
scalar MyScenario.node[12].nic.phy80211p 	busyTime 	0.0002984347826087
scalar MyScenario.node[12].nic.mac1609_4 	ReceivedUnicastPackets 	0
scalar MyScenario.node[12].nic.mac1609_4 	ReceivedBroadcasts 	66
scalar MyScenario.node[12].nic.mac1609_4 	SentPackets 	23
scalar MyScenario.node[12].nic.mac1609_4 	SNIRLostPackets 	0
scalar MyScenario.node[12].nic.mac1609_4 	RXTXLostPackets 	0
scalar MyScenario.node[12].nic.mac1609_4 	TotalLostPackets 	0
scalar MyScenario.node[12].nic.mac1609_4 	DroppedPacketsInMac 	0
scalar MyScenario.node[12].nic.mac1609_4 	TooLittleTime 	0
scalar MyScenario.node[12].nic.mac1609_4 	TimesIntoBackoff 	23
scalar MyScenario.node[12].nic.mac1609_4 	SlotsBackoff 	35
scalar MyScenario.node[12].nic.mac1609_4 	NumInternalContention 	0
scalar MyScenario.node[12].nic.mac1609_4 	totalBusyTime 	0.009279
scalar MyScenario.node[12].veinsmobility 	startTime 	18000
scalar MyScenario.node[12].veinsmobility 	totalTime 	22.9
scalar MyScenario.node[12].veinsmobility 	stopTime 	18023
scalar MyScenario.node[12].veinsmobility 	minSpeed 	3.1338512756307
scalar MyScenario.node[12].veinsmobility 	maxSpeed 	16.281485106186
scalar MyScenario.node[12].veinsmobility 	totalDistance 	294.93744983436
scalar MyScenario.node[12].veinsmobility 	totalCO2Emission 	67.770238357357
scalar MyScenario.node[4].appl 	generatedWSMs 	0
scalar MyScenario.node[4].appl 	receivedWSMs 	0
scalar MyScenario.node[4].appl 	generatedBSMs 	25
scalar MyScenario.node[4].appl 	receivedBSMs 	298
scalar MyScenario.node[4].appl 	generatedWSAs 	0
scalar MyScenario.node[4].appl 	receivedWSAs 	0
scalar MyScenario.node[4].nic.phy80211p 	busyTime 	0.0012249802371541
scalar MyScenario.node[4].nic.mac1609_4 	ReceivedUnicastPackets 	0
scalar MyScenario.node[4].nic.mac1609_4 	ReceivedBroadcasts 	298
scalar MyScenario.node[4].nic.mac1609_4 	SentPackets 	25
scalar MyScenario.node[4].nic.mac1609_4 	SNIRLostPackets 	0
scalar MyScenario.node[4].nic.mac1609_4 	RXTXLostPackets 	0
scalar MyScenario.node[4].nic.mac1609_4 	TotalLostPackets 	0
scalar MyScenario.node[4].nic.mac1609_4 	DroppedPacketsInMac 	0
scalar MyScenario.node[4].nic.mac1609_4 	TooLittleTime 	0
scalar MyScenario.node[4].nic.mac1609_4 	TimesIntoBackoff 	25
scalar MyScenario.node[4].nic.mac1609_4 	SlotsBackoff 	23
scalar MyScenario.node[4].nic.mac1609_4 	NumInternalContention 	0
scalar MyScenario.node[4].nic.mac1609_4 	totalBusyTime 	0.033617
scalar MyScenario.node[4].veinsmobility 	startTime 	18000
scalar MyScenario.node[4].veinsmobility 	totalTime 	25.2
scalar MyScenario.node[4].veinsmobility 	stopTime 	18025.3
scalar MyScenario.node[4].veinsmobility 	minSpeed 	29.885207012822
scalar MyScenario.node[4].veinsmobility 	maxSpeed 	29.999359525181
scalar MyScenario.node[4].veinsmobility 	totalDistance 	755.31644328932
scalar MyScenario.node[4].veinsmobility 	totalCO2Emission 	129.70929429307
scalar MyScenario.node[0].appl 	generatedWSMs 	0
scalar MyScenario.node[0].appl 	receivedWSMs 	0
scalar MyScenario.node[0].appl 	generatedBSMs 	26
scalar MyScenario.node[0].appl 	receivedBSMs 	322
scalar MyScenario.node[0].appl 	generatedWSAs 	0
scalar MyScenario.node[0].appl 	receivedWSAs 	0
scalar MyScenario.node[0].nic.phy80211p 	busyTime 	0.0013184251968504
scalar MyScenario.node[0].nic.mac1609_4 	ReceivedUnicastPackets 	0
scalar MyScenario.node[0].nic.mac1609_4 	ReceivedBroadcasts 	322
scalar MyScenario.node[0].nic.mac1609_4 	SentPackets 	26
scalar MyScenario.node[0].nic.mac1609_4 	SNIRLostPackets 	0
scalar MyScenario.node[0].nic.mac1609_4 	RXTXLostPackets 	0
scalar MyScenario.node[0].nic.mac1609_4 	TotalLostPackets 	0
scalar MyScenario.node[0].nic.mac1609_4 	DroppedPacketsInMac 	0
scalar MyScenario.node[0].nic.mac1609_4 	TooLittleTime 	0
scalar MyScenario.node[0].nic.mac1609_4 	TimesIntoBackoff 	26
scalar MyScenario.node[0].nic.mac1609_4 	SlotsBackoff 	37
scalar MyScenario.node[0].nic.mac1609_4 	NumInternalContention 	0
scalar MyScenario.node[0].nic.mac1609_4 	totalBusyTime 	0.036218
scalar MyScenario.node[0].veinsmobility 	startTime 	18000
scalar MyScenario.node[0].veinsmobility 	totalTime 	25.3
scalar MyScenario.node[0].veinsmobility 	stopTime 	18025.4
scalar MyScenario.node[0].veinsmobility 	minSpeed 	29.880382195339
scalar MyScenario.node[0].veinsmobility 	maxSpeed 	29.999316385081
scalar MyScenario.node[0].veinsmobility 	totalDistance 	756.47912624573
scalar MyScenario.node[0].veinsmobility 	totalCO2Emission 	129.45420948632
scalar MyScenario.node[5].appl 	generatedWSMs 	0
scalar MyScenario.node[5].appl 	receivedWSMs 	0
scalar MyScenario.node[5].appl 	generatedBSMs 	27
scalar MyScenario.node[5].appl 	receivedBSMs 	316
scalar MyScenario.node[5].appl 	generatedWSAs 	0
scalar MyScenario.node[5].appl 	receivedWSAs 	0
scalar MyScenario.node[5].nic.phy80211p 	busyTime 	0.0012354887218045
scalar MyScenario.node[5].nic.mac1609_4 	ReceivedUnicastPackets 	0
scalar MyScenario.node[5].nic.mac1609_4 	ReceivedBroadcasts 	316
scalar MyScenario.node[5].nic.mac1609_4 	SentPackets 	27
scalar MyScenario.node[5].nic.mac1609_4 	SNIRLostPackets 	0
scalar MyScenario.node[5].nic.mac1609_4 	RXTXLostPackets 	0
scalar MyScenario.node[5].nic.mac1609_4 	TotalLostPackets 	0
scalar MyScenario.node[5].nic.mac1609_4 	DroppedPacketsInMac 	0
scalar MyScenario.node[5].nic.mac1609_4 	TooLittleTime 	0
scalar MyScenario.node[5].nic.mac1609_4 	TimesIntoBackoff 	27
scalar MyScenario.node[5].nic.mac1609_4 	SlotsBackoff 	38
scalar MyScenario.node[5].nic.mac1609_4 	NumInternalContention 	0
scalar MyScenario.node[5].nic.mac1609_4 	totalBusyTime 	0.035699
scalar MyScenario.node[5].veinsmobility 	startTime 	18000
scalar MyScenario.node[5].veinsmobility 	totalTime 	26.5
scalar MyScenario.node[5].veinsmobility 	stopTime 	18026.6
scalar MyScenario.node[5].veinsmobility 	minSpeed 	29.831108726971
scalar MyScenario.node[5].veinsmobility 	maxSpeed 	30.10516569672
scalar MyScenario.node[5].veinsmobility 	totalDistance 	795.01759796767
scalar MyScenario.node[5].veinsmobility 	totalCO2Emission 	147.83818571109
scalar MyScenario.node[42].appl 	generatedWSMs 	0
scalar MyScenario.node[42].appl 	receivedWSMs 	0
scalar MyScenario.node[42].appl 	generatedBSMs 	25
scalar MyScenario.node[42].appl 	receivedBSMs 	70
scalar MyScenario.node[42].appl 	generatedWSAs 	0
scalar MyScenario.node[42].appl 	receivedWSAs 	0
scalar MyScenario.node[42].nic.phy80211p 	busyTime 	0.00029593495934959
scalar MyScenario.node[42].nic.mac1609_4 	ReceivedUnicastPackets 	0
scalar MyScenario.node[42].nic.mac1609_4 	ReceivedBroadcasts 	70
scalar MyScenario.node[42].nic.mac1609_4 	SentPackets 	25
scalar MyScenario.node[42].nic.mac1609_4 	SNIRLostPackets 	0
scalar MyScenario.node[42].nic.mac1609_4 	RXTXLostPackets 	0
scalar MyScenario.node[42].nic.mac1609_4 	TotalLostPackets 	0
scalar MyScenario.node[42].nic.mac1609_4 	DroppedPacketsInMac 	0
scalar MyScenario.node[42].nic.mac1609_4 	TooLittleTime 	0
scalar MyScenario.node[42].nic.mac1609_4 	TimesIntoBackoff 	25
scalar MyScenario.node[42].nic.mac1609_4 	SlotsBackoff 	34
scalar MyScenario.node[42].nic.mac1609_4 	NumInternalContention 	0
scalar MyScenario.node[42].nic.mac1609_4 	totalBusyTime 	0.009905
scalar MyScenario.node[42].veinsmobility 	startTime 	18002.2
scalar MyScenario.node[42].veinsmobility 	totalTime 	24.5
scalar MyScenario.node[42].veinsmobility 	stopTime 	18026.8
scalar MyScenario.node[42].veinsmobility 	minSpeed 	3.4553142450458
scalar MyScenario.node[42].veinsmobility 	maxSpeed 	14.992110432127
scalar MyScenario.node[42].veinsmobility 	totalDistance 	301.22138243784
scalar MyScenario.node[42].veinsmobility 	totalCO2Emission 	65.541376494414
scalar MyScenario.node[40].appl 	generatedWSMs 	0
scalar MyScenario.node[40].appl 	receivedWSMs 	0
scalar MyScenario.node[40].appl 	generatedBSMs 	26
scalar MyScenario.node[40].appl 	receivedBSMs 	330
scalar MyScenario.node[40].appl 	generatedWSAs 	0
scalar MyScenario.node[40].appl 	receivedWSAs 	0
scalar MyScenario.node[40].nic.phy80211p 	busyTime 	0.0013458823529412
scalar MyScenario.node[40].nic.mac1609_4 	ReceivedUnicastPackets 	0
scalar MyScenario.node[40].nic.mac1609_4 	ReceivedBroadcasts 	330
scalar MyScenario.node[40].nic.mac1609_4 	SentPackets 	26
scalar MyScenario.node[40].nic.mac1609_4 	SNIRLostPackets 	0
scalar MyScenario.node[40].nic.mac1609_4 	RXTXLostPackets 	0
scalar MyScenario.node[40].nic.mac1609_4 	TotalLostPackets 	0
scalar MyScenario.node[40].nic.mac1609_4 	DroppedPacketsInMac 	0
scalar MyScenario.node[40].nic.mac1609_4 	TooLittleTime 	0
scalar MyScenario.node[40].nic.mac1609_4 	TimesIntoBackoff 	26
scalar MyScenario.node[40].nic.mac1609_4 	SlotsBackoff 	32
scalar MyScenario.node[40].nic.mac1609_4 	NumInternalContention 	0
scalar MyScenario.node[40].nic.mac1609_4 	totalBusyTime 	0.03705
scalar MyScenario.node[40].veinsmobility 	startTime 	18001.5
scalar MyScenario.node[40].veinsmobility 	totalTime 	25.4
scalar MyScenario.node[40].veinsmobility 	stopTime 	18027
scalar MyScenario.node[40].veinsmobility 	minSpeed 	31.544514423038
scalar MyScenario.node[40].veinsmobility 	maxSpeed 	37.455312203275
scalar MyScenario.node[40].veinsmobility 	totalDistance 	902.95024971062
scalar MyScenario.node[40].veinsmobility 	totalCO2Emission 	134.08455077237
scalar MyScenario.node[38].appl 	generatedWSMs 	0
scalar MyScenario.node[38].appl 	receivedWSMs 	0
scalar MyScenario.node[38].appl 	generatedBSMs 	29
scalar MyScenario.node[38].appl 	receivedBSMs 	315
scalar MyScenario.node[38].appl 	generatedWSAs 	0
scalar MyScenario.node[38].appl 	receivedWSAs 	0
scalar MyScenario.node[38].nic.phy80211p 	busyTime 	0.0011414634146341
scalar MyScenario.node[38].nic.mac1609_4 	ReceivedUnicastPackets 	0
scalar MyScenario.node[38].nic.mac1609_4 	ReceivedBroadcasts 	315
scalar MyScenario.node[38].nic.mac1609_4 	SentPackets 	29
scalar MyScenario.node[38].nic.mac1609_4 	SNIRLostPackets 	0
scalar MyScenario.node[38].nic.mac1609_4 	RXTXLostPackets 	0
scalar MyScenario.node[38].nic.mac1609_4 	TotalLostPackets 	0
scalar MyScenario.node[38].nic.mac1609_4 	DroppedPacketsInMac 	0
scalar MyScenario.node[38].nic.mac1609_4 	TooLittleTime 	0
scalar MyScenario.node[38].nic.mac1609_4 	TimesIntoBackoff 	29
scalar MyScenario.node[38].nic.mac1609_4 	SlotsBackoff 	40
scalar MyScenario.node[38].nic.mac1609_4 	NumInternalContention 	0
scalar MyScenario.node[38].nic.mac1609_4 	totalBusyTime 	0.035805
scalar MyScenario.node[38].veinsmobility 	startTime 	18000.5
scalar MyScenario.node[38].veinsmobility 	totalTime 	28.6
scalar MyScenario.node[38].veinsmobility 	stopTime 	18029.2
scalar MyScenario.node[38].veinsmobility 	minSpeed 	31.400453245055
scalar MyScenario.node[38].veinsmobility 	maxSpeed 	31.549635216847
scalar MyScenario.node[38].veinsmobility 	totalDistance 	900.16070409195
scalar MyScenario.node[38].veinsmobility 	totalCO2Emission 	164.22594282902
scalar MyScenario.node[44].appl 	generatedWSMs 	0
scalar MyScenario.node[44].appl 	receivedWSMs 	0
scalar MyScenario.node[44].appl 	generatedBSMs 	26
scalar MyScenario.node[44].appl 	receivedBSMs 	372
scalar MyScenario.node[44].appl 	generatedWSAs 	0
scalar MyScenario.node[44].appl 	receivedWSAs 	0
scalar MyScenario.node[44].nic.phy80211p 	busyTime 	0.0014544360902256
scalar MyScenario.node[44].nic.mac1609_4 	ReceivedUnicastPackets 	0
scalar MyScenario.node[44].nic.mac1609_4 	ReceivedBroadcasts 	372
scalar MyScenario.node[44].nic.mac1609_4 	SentPackets 	26
scalar MyScenario.node[44].nic.mac1609_4 	SNIRLostPackets 	0
scalar MyScenario.node[44].nic.mac1609_4 	RXTXLostPackets 	0
scalar MyScenario.node[44].nic.mac1609_4 	TotalLostPackets 	0
scalar MyScenario.node[44].nic.mac1609_4 	DroppedPacketsInMac 	0
scalar MyScenario.node[44].nic.mac1609_4 	TooLittleTime 	0
scalar MyScenario.node[44].nic.mac1609_4 	TimesIntoBackoff 	26
scalar MyScenario.node[44].nic.mac1609_4 	SlotsBackoff 	47
scalar MyScenario.node[44].nic.mac1609_4 	NumInternalContention 	0
scalar MyScenario.node[44].nic.mac1609_4 	totalBusyTime 	0.041418
scalar MyScenario.node[44].veinsmobility 	startTime 	18003.7
scalar MyScenario.node[44].veinsmobility 	totalTime 	26.5
scalar MyScenario.node[44].veinsmobility 	stopTime 	18030.3
scalar MyScenario.node[44].veinsmobility 	minSpeed 	33.839378375856
scalar MyScenario.node[44].veinsmobility 	maxSpeed 	33.977799359148
scalar MyScenario.node[44].veinsmobility 	totalDistance 	898.52632302205
scalar MyScenario.node[44].veinsmobility 	totalCO2Emission 	168.88497667989
scalar MyScenario.node[47].appl 	generatedWSMs 	0
scalar MyScenario.node[47].appl 	receivedWSMs 	0
scalar MyScenario.node[47].appl 	generatedBSMs 	25
scalar MyScenario.node[47].appl 	receivedBSMs 	372
scalar MyScenario.node[47].appl 	generatedWSAs 	0
scalar MyScenario.node[47].appl 	receivedWSAs 	0
scalar MyScenario.node[47].nic.phy80211p 	busyTime 	0.0015112500000001
scalar MyScenario.node[47].nic.mac1609_4 	ReceivedUnicastPackets 	0
scalar MyScenario.node[47].nic.mac1609_4 	ReceivedBroadcasts 	372
scalar MyScenario.node[47].nic.mac1609_4 	SentPackets 	25
scalar MyScenario.node[47].nic.mac1609_4 	SNIRLostPackets 	0
scalar MyScenario.node[47].nic.mac1609_4 	RXTXLostPackets 	0
scalar MyScenario.node[47].nic.mac1609_4 	TotalLostPackets 	0
scalar MyScenario.node[47].nic.mac1609_4 	DroppedPacketsInMac 	0
scalar MyScenario.node[47].nic.mac1609_4 	TooLittleTime 	0
scalar MyScenario.node[47].nic.mac1609_4 	TimesIntoBackoff 	25
scalar MyScenario.node[47].nic.mac1609_4 	SlotsBackoff 	45
scalar MyScenario.node[47].nic.mac1609_4 	NumInternalContention 	0
scalar MyScenario.node[47].nic.mac1609_4 	totalBusyTime 	0.041313
scalar MyScenario.node[47].veinsmobility 	startTime 	18005.9
scalar MyScenario.node[47].veinsmobility 	totalTime 	25.5
scalar MyScenario.node[47].veinsmobility 	stopTime 	18031.5
scalar MyScenario.node[47].veinsmobility 	minSpeed 	34.080250404187
scalar MyScenario.node[47].veinsmobility 	maxSpeed 	37.939648337592
scalar MyScenario.node[47].veinsmobility 	totalDistance 	899.55959169066
scalar MyScenario.node[47].veinsmobility 	totalCO2Emission 	142.24256015211
scalar MyScenario.node[50].appl 	generatedWSMs 	0
scalar MyScenario.node[50].appl 	receivedWSMs 	0
scalar MyScenario.node[50].appl 	generatedBSMs 	25
scalar MyScenario.node[50].appl 	receivedBSMs 	360
scalar MyScenario.node[50].appl 	generatedWSAs 	0
scalar MyScenario.node[50].appl 	receivedWSAs 	0
scalar MyScenario.node[50].nic.phy80211p 	busyTime 	0.0015157894736843
scalar MyScenario.node[50].nic.mac1609_4 	ReceivedUnicastPackets 	0
scalar MyScenario.node[50].nic.mac1609_4 	ReceivedBroadcasts 	360
scalar MyScenario.node[50].nic.mac1609_4 	SentPackets 	25
scalar MyScenario.node[50].nic.mac1609_4 	SNIRLostPackets 	0
scalar MyScenario.node[50].nic.mac1609_4 	RXTXLostPackets 	0
scalar MyScenario.node[50].nic.mac1609_4 	TotalLostPackets 	0
scalar MyScenario.node[50].nic.mac1609_4 	DroppedPacketsInMac 	0
scalar MyScenario.node[50].nic.mac1609_4 	TooLittleTime 	0
scalar MyScenario.node[50].nic.mac1609_4 	TimesIntoBackoff 	25
scalar MyScenario.node[50].nic.mac1609_4 	SlotsBackoff 	34
scalar MyScenario.node[50].nic.mac1609_4 	NumInternalContention 	0
scalar MyScenario.node[50].nic.mac1609_4 	totalBusyTime 	0.040065
scalar MyScenario.node[50].veinsmobility 	startTime 	18006.9
scalar MyScenario.node[50].veinsmobility 	totalTime 	24.6
scalar MyScenario.node[50].veinsmobility 	stopTime 	18031.6
scalar MyScenario.node[50].veinsmobility 	minSpeed 	34.351558794489
scalar MyScenario.node[50].veinsmobility 	maxSpeed 	41.266223472169
scalar MyScenario.node[50].veinsmobility 	totalDistance 	898.53107852112
scalar MyScenario.node[50].veinsmobility 	totalCO2Emission 	137.76618091865
scalar MyScenario.node[49].appl 	generatedWSMs 	0
scalar MyScenario.node[49].appl 	receivedWSMs 	0
scalar MyScenario.node[49].appl 	generatedBSMs 	25
scalar MyScenario.node[49].appl 	receivedBSMs 	322
scalar MyScenario.node[49].appl 	generatedWSAs 	0
scalar MyScenario.node[49].appl 	receivedWSAs 	0
scalar MyScenario.node[49].nic.phy80211p 	busyTime 	0.0013030350194553
scalar MyScenario.node[49].nic.mac1609_4 	ReceivedUnicastPackets 	0
scalar MyScenario.node[49].nic.mac1609_4 	ReceivedBroadcasts 	322
scalar MyScenario.node[49].nic.mac1609_4 	SentPackets 	25
scalar MyScenario.node[49].nic.mac1609_4 	SNIRLostPackets 	0
scalar MyScenario.node[49].nic.mac1609_4 	RXTXLostPackets 	0
scalar MyScenario.node[49].nic.mac1609_4 	TotalLostPackets 	0
scalar MyScenario.node[49].nic.mac1609_4 	DroppedPacketsInMac 	0
scalar MyScenario.node[49].nic.mac1609_4 	TooLittleTime 	0
scalar MyScenario.node[49].nic.mac1609_4 	TimesIntoBackoff 	25
scalar MyScenario.node[49].nic.mac1609_4 	SlotsBackoff 	39
scalar MyScenario.node[49].nic.mac1609_4 	NumInternalContention 	0
scalar MyScenario.node[49].nic.mac1609_4 	totalBusyTime 	0.036113
scalar MyScenario.node[49].veinsmobility 	startTime 	18006.5
scalar MyScenario.node[49].veinsmobility 	totalTime 	25.6
scalar MyScenario.node[49].veinsmobility 	stopTime 	18032.2
scalar MyScenario.node[49].veinsmobility 	minSpeed 	35.255108685384
scalar MyScenario.node[49].veinsmobility 	maxSpeed 	35.382355339301
scalar MyScenario.node[49].veinsmobility 	totalDistance 	903.08716083252
scalar MyScenario.node[49].veinsmobility 	totalCO2Emission 	177.89130321101
scalar MyScenario.node[41].appl 	generatedWSMs 	0
scalar MyScenario.node[41].appl 	receivedWSMs 	0
scalar MyScenario.node[41].appl 	generatedBSMs 	31
scalar MyScenario.node[41].appl 	receivedBSMs 	397
scalar MyScenario.node[41].appl 	generatedWSAs 	0
scalar MyScenario.node[41].appl 	receivedWSAs 	0
scalar MyScenario.node[41].nic.phy80211p 	busyTime 	0.0013671523178808
scalar MyScenario.node[41].nic.mac1609_4 	ReceivedUnicastPackets 	0
scalar MyScenario.node[41].nic.mac1609_4 	ReceivedBroadcasts 	397
scalar MyScenario.node[41].nic.mac1609_4 	SentPackets 	31
scalar MyScenario.node[41].nic.mac1609_4 	SNIRLostPackets 	0
scalar MyScenario.node[41].nic.mac1609_4 	RXTXLostPackets 	0
scalar MyScenario.node[41].nic.mac1609_4 	TotalLostPackets 	0
scalar MyScenario.node[41].nic.mac1609_4 	DroppedPacketsInMac 	0
scalar MyScenario.node[41].nic.mac1609_4 	TooLittleTime 	0
scalar MyScenario.node[41].nic.mac1609_4 	TimesIntoBackoff 	31
scalar MyScenario.node[41].nic.mac1609_4 	SlotsBackoff 	35
scalar MyScenario.node[41].nic.mac1609_4 	NumInternalContention 	0
scalar MyScenario.node[41].nic.mac1609_4 	totalBusyTime 	0.044543
scalar MyScenario.node[41].veinsmobility 	startTime 	18002.2
scalar MyScenario.node[41].veinsmobility 	totalTime 	30.1
scalar MyScenario.node[41].veinsmobility 	stopTime 	18032.4
scalar MyScenario.node[41].veinsmobility 	minSpeed 	29.885043363256
scalar MyScenario.node[41].veinsmobility 	maxSpeed 	29.999675068627
scalar MyScenario.node[41].veinsmobility 	totalDistance 	900.2188783121
scalar MyScenario.node[41].veinsmobility 	totalCO2Emission 	154.76840678903
scalar MyScenario.node[43].appl 	generatedWSMs 	0
scalar MyScenario.node[43].appl 	receivedWSMs 	0
scalar MyScenario.node[43].appl 	generatedBSMs 	30
scalar MyScenario.node[43].appl 	receivedBSMs 	420
scalar MyScenario.node[43].appl 	generatedWSAs 	0
scalar MyScenario.node[43].appl 	receivedWSAs 	0
scalar MyScenario.node[43].nic.phy80211p 	busyTime 	0.0014511627906976
scalar MyScenario.node[43].nic.mac1609_4 	ReceivedUnicastPackets 	0
scalar MyScenario.node[43].nic.mac1609_4 	ReceivedBroadcasts 	420
scalar MyScenario.node[43].nic.mac1609_4 	SentPackets 	30
scalar MyScenario.node[43].nic.mac1609_4 	SNIRLostPackets 	0
scalar MyScenario.node[43].nic.mac1609_4 	RXTXLostPackets 	0
scalar MyScenario.node[43].nic.mac1609_4 	TotalLostPackets 	0
scalar MyScenario.node[43].nic.mac1609_4 	DroppedPacketsInMac 	0
scalar MyScenario.node[43].nic.mac1609_4 	TooLittleTime 	0
scalar MyScenario.node[43].nic.mac1609_4 	TimesIntoBackoff 	30
scalar MyScenario.node[43].nic.mac1609_4 	SlotsBackoff 	47
scalar MyScenario.node[43].nic.mac1609_4 	NumInternalContention 	0
scalar MyScenario.node[43].nic.mac1609_4 	totalBusyTime 	0.04683
scalar MyScenario.node[43].veinsmobility 	startTime 	18003.6
scalar MyScenario.node[43].veinsmobility 	totalTime 	30
scalar MyScenario.node[43].veinsmobility 	stopTime 	18033.7
scalar MyScenario.node[43].veinsmobility 	minSpeed 	29.849578828095
scalar MyScenario.node[43].veinsmobility 	maxSpeed 	30.363167701335
scalar MyScenario.node[43].veinsmobility 	totalDistance 	900.08760734415
scalar MyScenario.node[43].veinsmobility 	totalCO2Emission 	161.74989614901
scalar MyScenario.node[54].appl 	generatedWSMs 	0
scalar MyScenario.node[54].appl 	receivedWSMs 	0
scalar MyScenario.node[54].appl 	generatedBSMs 	25
scalar MyScenario.node[54].appl 	receivedBSMs 	306
scalar MyScenario.node[54].appl 	generatedWSAs 	0
scalar MyScenario.node[54].appl 	receivedWSAs 	0
scalar MyScenario.node[54].nic.phy80211p 	busyTime 	0.0012780722891567
scalar MyScenario.node[54].nic.mac1609_4 	ReceivedUnicastPackets 	0
scalar MyScenario.node[54].nic.mac1609_4 	ReceivedBroadcasts 	306
scalar MyScenario.node[54].nic.mac1609_4 	SentPackets 	25
scalar MyScenario.node[54].nic.mac1609_4 	SNIRLostPackets 	0
scalar MyScenario.node[54].nic.mac1609_4 	RXTXLostPackets 	0
scalar MyScenario.node[54].nic.mac1609_4 	TotalLostPackets 	0
scalar MyScenario.node[54].nic.mac1609_4 	DroppedPacketsInMac 	0
scalar MyScenario.node[54].nic.mac1609_4 	TooLittleTime 	0
scalar MyScenario.node[54].nic.mac1609_4 	TimesIntoBackoff 	25
scalar MyScenario.node[54].nic.mac1609_4 	SlotsBackoff 	31
scalar MyScenario.node[54].nic.mac1609_4 	NumInternalContention 	0
scalar MyScenario.node[54].nic.mac1609_4 	totalBusyTime 	0.034449
scalar MyScenario.node[54].veinsmobility 	startTime 	18009.4
scalar MyScenario.node[54].veinsmobility 	totalTime 	24.8
scalar MyScenario.node[54].veinsmobility 	stopTime 	18034.3
scalar MyScenario.node[54].veinsmobility 	minSpeed 	36.161597591164
scalar MyScenario.node[54].veinsmobility 	maxSpeed 	36.295600929872
scalar MyScenario.node[54].veinsmobility 	totalDistance 	897.5039065166
scalar MyScenario.node[54].veinsmobility 	totalCO2Emission 	179.26317956712
scalar MyScenario.node[46].appl 	generatedWSMs 	0
scalar MyScenario.node[46].appl 	receivedWSMs 	0
scalar MyScenario.node[46].appl 	generatedBSMs 	30
scalar MyScenario.node[46].appl 	receivedBSMs 	417
scalar MyScenario.node[46].appl 	generatedWSAs 	0
scalar MyScenario.node[46].appl 	receivedWSAs 	0
scalar MyScenario.node[46].nic.phy80211p 	busyTime 	0.0014651351351351
scalar MyScenario.node[46].nic.mac1609_4 	ReceivedUnicastPackets 	0
scalar MyScenario.node[46].nic.mac1609_4 	ReceivedBroadcasts 	417
scalar MyScenario.node[46].nic.mac1609_4 	SentPackets 	30
scalar MyScenario.node[46].nic.mac1609_4 	SNIRLostPackets 	0
scalar MyScenario.node[46].nic.mac1609_4 	RXTXLostPackets 	0
scalar MyScenario.node[46].nic.mac1609_4 	TotalLostPackets 	0
scalar MyScenario.node[46].nic.mac1609_4 	DroppedPacketsInMac 	0
scalar MyScenario.node[46].nic.mac1609_4 	TooLittleTime 	0
scalar MyScenario.node[46].nic.mac1609_4 	TimesIntoBackoff 	30
scalar MyScenario.node[46].nic.mac1609_4 	SlotsBackoff 	44
scalar MyScenario.node[46].nic.mac1609_4 	NumInternalContention 	0
scalar MyScenario.node[46].nic.mac1609_4 	totalBusyTime 	0.046518
scalar MyScenario.node[46].veinsmobility 	startTime 	18005.3
scalar MyScenario.node[46].veinsmobility 	totalTime 	29.5
scalar MyScenario.node[46].veinsmobility 	stopTime 	18034.9
scalar MyScenario.node[46].veinsmobility 	minSpeed 	29.878301775113
scalar MyScenario.node[46].veinsmobility 	maxSpeed 	32.025219571211
scalar MyScenario.node[46].veinsmobility 	totalDistance 	898.57771512516
scalar MyScenario.node[46].veinsmobility 	totalCO2Emission 	159.94378544428
scalar MyScenario.node[48].appl 	generatedWSMs 	0
scalar MyScenario.node[48].appl 	receivedWSMs 	0
scalar MyScenario.node[48].appl 	generatedBSMs 	29
scalar MyScenario.node[48].appl 	receivedBSMs 	405
scalar MyScenario.node[48].appl 	generatedWSAs 	0
scalar MyScenario.node[48].appl 	receivedWSAs 	0
scalar MyScenario.node[48].nic.phy80211p 	busyTime 	0.0014181818181818
scalar MyScenario.node[48].nic.mac1609_4 	ReceivedUnicastPackets 	0
scalar MyScenario.node[48].nic.mac1609_4 	ReceivedBroadcasts 	405
scalar MyScenario.node[48].nic.mac1609_4 	SentPackets 	29
scalar MyScenario.node[48].nic.mac1609_4 	SNIRLostPackets 	0
scalar MyScenario.node[48].nic.mac1609_4 	RXTXLostPackets 	0
scalar MyScenario.node[48].nic.mac1609_4 	TotalLostPackets 	0
scalar MyScenario.node[48].nic.mac1609_4 	DroppedPacketsInMac 	0
scalar MyScenario.node[48].nic.mac1609_4 	TooLittleTime 	0
scalar MyScenario.node[48].nic.mac1609_4 	TimesIntoBackoff 	29
scalar MyScenario.node[48].nic.mac1609_4 	SlotsBackoff 	38
scalar MyScenario.node[48].nic.mac1609_4 	NumInternalContention 	0
scalar MyScenario.node[48].nic.mac1609_4 	totalBusyTime 	0.045165
scalar MyScenario.node[48].veinsmobility 	startTime 	18006.5
scalar MyScenario.node[48].veinsmobility 	totalTime 	29.6
scalar MyScenario.node[48].veinsmobility 	stopTime 	18036.2
scalar MyScenario.node[48].veinsmobility 	minSpeed 	29.888141461439
scalar MyScenario.node[48].veinsmobility 	maxSpeed 	31.880061238239
scalar MyScenario.node[48].veinsmobility 	totalDistance 	901.25535851577
scalar MyScenario.node[48].veinsmobility 	totalCO2Emission 	166.47399258918
scalar MyScenario.node[53].appl 	generatedWSMs 	0
scalar MyScenario.node[53].appl 	receivedWSMs 	0
scalar MyScenario.node[53].appl 	generatedBSMs 	30
scalar MyScenario.node[53].appl 	receivedBSMs 	396
scalar MyScenario.node[53].appl 	generatedWSAs 	0
scalar MyScenario.node[53].appl 	receivedWSAs 	0
scalar MyScenario.node[53].nic.phy80211p 	busyTime 	0.0013913513513514
scalar MyScenario.node[53].nic.mac1609_4 	ReceivedUnicastPackets 	0
scalar MyScenario.node[53].nic.mac1609_4 	ReceivedBroadcasts 	396
scalar MyScenario.node[53].nic.mac1609_4 	SentPackets 	30
scalar MyScenario.node[53].nic.mac1609_4 	SNIRLostPackets 	0
scalar MyScenario.node[53].nic.mac1609_4 	RXTXLostPackets 	0
scalar MyScenario.node[53].nic.mac1609_4 	TotalLostPackets 	0
scalar MyScenario.node[53].nic.mac1609_4 	DroppedPacketsInMac 	0
scalar MyScenario.node[53].nic.mac1609_4 	TooLittleTime 	0
scalar MyScenario.node[53].nic.mac1609_4 	TimesIntoBackoff 	30
scalar MyScenario.node[53].nic.mac1609_4 	SlotsBackoff 	50
scalar MyScenario.node[53].nic.mac1609_4 	NumInternalContention 	0
scalar MyScenario.node[53].nic.mac1609_4 	totalBusyTime 	0.044334
scalar MyScenario.node[53].veinsmobility 	startTime 	18007.9
scalar MyScenario.node[53].veinsmobility 	totalTime 	29.5
scalar MyScenario.node[53].veinsmobility 	stopTime 	18037.5
scalar MyScenario.node[53].veinsmobility 	minSpeed 	29.914830666558
scalar MyScenario.node[53].veinsmobility 	maxSpeed 	32.198979418658
scalar MyScenario.node[53].veinsmobility 	totalDistance 	902.43965509174
scalar MyScenario.node[53].veinsmobility 	totalCO2Emission 	166.16659505977
scalar MyScenario.node[55].appl 	generatedWSMs 	0
scalar MyScenario.node[55].appl 	receivedWSMs 	0
scalar MyScenario.node[55].appl 	generatedBSMs 	30
scalar MyScenario.node[55].appl 	receivedBSMs 	354
scalar MyScenario.node[55].appl 	generatedWSAs 	0
scalar MyScenario.node[55].appl 	receivedWSAs 	0
scalar MyScenario.node[55].nic.phy80211p 	busyTime 	0.0012225165562914
scalar MyScenario.node[55].nic.mac1609_4 	ReceivedUnicastPackets 	0
scalar MyScenario.node[55].nic.mac1609_4 	ReceivedBroadcasts 	354
scalar MyScenario.node[55].nic.mac1609_4 	SentPackets 	30
scalar MyScenario.node[55].nic.mac1609_4 	SNIRLostPackets 	1
scalar MyScenario.node[55].nic.mac1609_4 	RXTXLostPackets 	0
scalar MyScenario.node[55].nic.mac1609_4 	TotalLostPackets 	1
scalar MyScenario.node[55].nic.mac1609_4 	DroppedPacketsInMac 	0
scalar MyScenario.node[55].nic.mac1609_4 	TooLittleTime 	0
scalar MyScenario.node[55].nic.mac1609_4 	TimesIntoBackoff 	30
scalar MyScenario.node[55].nic.mac1609_4 	SlotsBackoff 	51
scalar MyScenario.node[55].nic.mac1609_4 	NumInternalContention 	0
scalar MyScenario.node[55].nic.mac1609_4 	totalBusyTime 	0.04007
scalar MyScenario.node[55].veinsmobility 	startTime 	18011.3
scalar MyScenario.node[55].veinsmobility 	totalTime 	30.1
scalar MyScenario.node[55].veinsmobility 	stopTime 	18041.5
scalar MyScenario.node[55].veinsmobility 	minSpeed 	29.880870602662
scalar MyScenario.node[55].veinsmobility 	maxSpeed 	29.999975775769
scalar MyScenario.node[55].veinsmobility 	totalDistance 	901.29451892146
scalar MyScenario.node[55].veinsmobility 	totalCO2Emission 	154.04636589602
scalar MyScenario.node[57].appl 	generatedWSMs 	0
scalar MyScenario.node[57].appl 	receivedWSMs 	0
scalar MyScenario.node[57].appl 	generatedBSMs 	27
scalar MyScenario.node[57].appl 	receivedBSMs 	328
scalar MyScenario.node[57].appl 	generatedWSAs 	0
scalar MyScenario.node[57].appl 	receivedWSAs 	0
scalar MyScenario.node[57].nic.phy80211p 	busyTime 	0.0012359420289855
scalar MyScenario.node[57].nic.mac1609_4 	ReceivedUnicastPackets 	0
scalar MyScenario.node[57].nic.mac1609_4 	ReceivedBroadcasts 	328
scalar MyScenario.node[57].nic.mac1609_4 	SentPackets 	27
scalar MyScenario.node[57].nic.mac1609_4 	SNIRLostPackets 	0
scalar MyScenario.node[57].nic.mac1609_4 	RXTXLostPackets 	0
scalar MyScenario.node[57].nic.mac1609_4 	TotalLostPackets 	0
scalar MyScenario.node[57].nic.mac1609_4 	DroppedPacketsInMac 	0
scalar MyScenario.node[57].nic.mac1609_4 	TooLittleTime 	0
scalar MyScenario.node[57].nic.mac1609_4 	TimesIntoBackoff 	27
scalar MyScenario.node[57].nic.mac1609_4 	SlotsBackoff 	40
scalar MyScenario.node[57].nic.mac1609_4 	NumInternalContention 	0
scalar MyScenario.node[57].nic.mac1609_4 	totalBusyTime 	0.036947
scalar MyScenario.node[57].veinsmobility 	startTime 	18014.8
scalar MyScenario.node[57].veinsmobility 	totalTime 	27.5
scalar MyScenario.node[57].veinsmobility 	stopTime 	18042.4
scalar MyScenario.node[57].veinsmobility 	minSpeed 	32.73859003582
scalar MyScenario.node[57].veinsmobility 	maxSpeed 	32.878431638483
scalar MyScenario.node[57].veinsmobility 	totalDistance 	903.34363672733
scalar MyScenario.node[57].veinsmobility 	totalCO2Emission 	166.91775495283
scalar MyScenario.node[56].appl 	generatedWSMs 	0
scalar MyScenario.node[56].appl 	receivedWSMs 	0
scalar MyScenario.node[56].appl 	generatedBSMs 	28
scalar MyScenario.node[56].appl 	receivedBSMs 	344
scalar MyScenario.node[56].appl 	generatedWSAs 	0
scalar MyScenario.node[56].appl 	receivedWSAs 	0
scalar MyScenario.node[56].nic.phy80211p 	busyTime 	0.0012545454545455
scalar MyScenario.node[56].nic.mac1609_4 	ReceivedUnicastPackets 	0
scalar MyScenario.node[56].nic.mac1609_4 	ReceivedBroadcasts 	344
scalar MyScenario.node[56].nic.mac1609_4 	SentPackets 	28
scalar MyScenario.node[56].nic.mac1609_4 	SNIRLostPackets 	1
scalar MyScenario.node[56].nic.mac1609_4 	RXTXLostPackets 	0
scalar MyScenario.node[56].nic.mac1609_4 	TotalLostPackets 	1
scalar MyScenario.node[56].nic.mac1609_4 	DroppedPacketsInMac 	0
scalar MyScenario.node[56].nic.mac1609_4 	TooLittleTime 	0
scalar MyScenario.node[56].nic.mac1609_4 	TimesIntoBackoff 	28
scalar MyScenario.node[56].nic.mac1609_4 	SlotsBackoff 	43
scalar MyScenario.node[56].nic.mac1609_4 	NumInternalContention 	0
scalar MyScenario.node[56].nic.mac1609_4 	totalBusyTime 	0.03882
scalar MyScenario.node[56].veinsmobility 	startTime 	18014.2
scalar MyScenario.node[56].veinsmobility 	totalTime 	28.5
scalar MyScenario.node[56].veinsmobility 	stopTime 	18042.8
scalar MyScenario.node[56].veinsmobility 	minSpeed 	30.07620154971
scalar MyScenario.node[56].veinsmobility 	maxSpeed 	35.847864039048
scalar MyScenario.node[56].veinsmobility 	totalDistance 	902.34550141085
scalar MyScenario.node[56].veinsmobility 	totalCO2Emission 	118.97148660556
scalar MyScenario.node[59].appl 	generatedWSMs 	0
scalar MyScenario.node[59].appl 	receivedWSMs 	0
scalar MyScenario.node[59].appl 	generatedBSMs 	24
scalar MyScenario.node[59].appl 	receivedBSMs 	16
scalar MyScenario.node[59].appl 	generatedWSAs 	0
scalar MyScenario.node[59].appl 	receivedWSAs 	0
scalar MyScenario.node[59].nic.phy80211p 	busyTime 	6.9333333333333e-05
scalar MyScenario.node[59].nic.mac1609_4 	ReceivedUnicastPackets 	0
scalar MyScenario.node[59].nic.mac1609_4 	ReceivedBroadcasts 	16
scalar MyScenario.node[59].nic.mac1609_4 	SentPackets 	24
scalar MyScenario.node[59].nic.mac1609_4 	SNIRLostPackets 	0
scalar MyScenario.node[59].nic.mac1609_4 	RXTXLostPackets 	0
scalar MyScenario.node[59].nic.mac1609_4 	TotalLostPackets 	0
scalar MyScenario.node[59].nic.mac1609_4 	DroppedPacketsInMac 	0
scalar MyScenario.node[59].nic.mac1609_4 	TooLittleTime 	0
scalar MyScenario.node[59].nic.mac1609_4 	TimesIntoBackoff 	24
scalar MyScenario.node[59].nic.mac1609_4 	SlotsBackoff 	28
scalar MyScenario.node[59].nic.mac1609_4 	NumInternalContention 	0
scalar MyScenario.node[59].nic.mac1609_4 	totalBusyTime 	0.004184
scalar MyScenario.node[59].veinsmobility 	startTime 	18022.2
scalar MyScenario.node[59].veinsmobility 	totalTime 	23.9
scalar MyScenario.node[59].veinsmobility 	stopTime 	18046.2
scalar MyScenario.node[59].veinsmobility 	minSpeed 	3.3014476896271
scalar MyScenario.node[59].veinsmobility 	maxSpeed 	15.537996550768
scalar MyScenario.node[59].veinsmobility 	totalDistance 	301.86136082138
scalar MyScenario.node[59].veinsmobility 	totalCO2Emission 	67.623444931538
scalar MyScenario.node[61].appl 	generatedWSMs 	0
scalar MyScenario.node[61].appl 	receivedWSMs 	0
scalar MyScenario.node[61].appl 	generatedBSMs 	24
scalar MyScenario.node[61].appl 	receivedBSMs 	201
scalar MyScenario.node[61].appl 	generatedWSAs 	0
scalar MyScenario.node[61].appl 	receivedWSAs 	0
scalar MyScenario.node[61].nic.phy80211p 	busyTime 	0.00084975609756098
scalar MyScenario.node[61].nic.mac1609_4 	ReceivedUnicastPackets 	0
scalar MyScenario.node[61].nic.mac1609_4 	ReceivedBroadcasts 	201
scalar MyScenario.node[61].nic.mac1609_4 	SentPackets 	24
scalar MyScenario.node[61].nic.mac1609_4 	SNIRLostPackets 	0
scalar MyScenario.node[61].nic.mac1609_4 	RXTXLostPackets 	0
scalar MyScenario.node[61].nic.mac1609_4 	TotalLostPackets 	0
scalar MyScenario.node[61].nic.mac1609_4 	DroppedPacketsInMac 	0
scalar MyScenario.node[61].nic.mac1609_4 	TooLittleTime 	0
scalar MyScenario.node[61].nic.mac1609_4 	TimesIntoBackoff 	24
scalar MyScenario.node[61].nic.mac1609_4 	SlotsBackoff 	28
scalar MyScenario.node[61].nic.mac1609_4 	NumInternalContention 	0
scalar MyScenario.node[61].nic.mac1609_4 	totalBusyTime 	0.023424
scalar MyScenario.node[61].veinsmobility 	startTime 	18023.8
scalar MyScenario.node[61].veinsmobility 	totalTime 	24.5
scalar MyScenario.node[61].veinsmobility 	stopTime 	18048.4
scalar MyScenario.node[61].veinsmobility 	minSpeed 	36.702969788148
scalar MyScenario.node[61].veinsmobility 	maxSpeed 	36.832585347525
scalar MyScenario.node[61].veinsmobility 	totalDistance 	900.73376378796
scalar MyScenario.node[61].veinsmobility 	totalCO2Emission 	181.68687685854
scalar MyScenario.node[64].appl 	generatedWSMs 	0
scalar MyScenario.node[64].appl 	receivedWSMs 	0
scalar MyScenario.node[64].appl 	generatedBSMs 	25
scalar MyScenario.node[64].appl 	receivedBSMs 	195
scalar MyScenario.node[64].appl 	generatedWSAs 	0
scalar MyScenario.node[64].appl 	receivedWSAs 	0
scalar MyScenario.node[64].nic.phy80211p 	busyTime 	0.00081774193548387
scalar MyScenario.node[64].nic.mac1609_4 	ReceivedUnicastPackets 	0
scalar MyScenario.node[64].nic.mac1609_4 	ReceivedBroadcasts 	195
scalar MyScenario.node[64].nic.mac1609_4 	SentPackets 	25
scalar MyScenario.node[64].nic.mac1609_4 	SNIRLostPackets 	0
scalar MyScenario.node[64].nic.mac1609_4 	RXTXLostPackets 	0
scalar MyScenario.node[64].nic.mac1609_4 	TotalLostPackets 	0
scalar MyScenario.node[64].nic.mac1609_4 	DroppedPacketsInMac 	0
scalar MyScenario.node[64].nic.mac1609_4 	TooLittleTime 	0
scalar MyScenario.node[64].nic.mac1609_4 	TimesIntoBackoff 	25
scalar MyScenario.node[64].nic.mac1609_4 	SlotsBackoff 	33
scalar MyScenario.node[64].nic.mac1609_4 	NumInternalContention 	0
scalar MyScenario.node[64].nic.mac1609_4 	totalBusyTime 	0.022905
scalar MyScenario.node[64].veinsmobility 	startTime 	18026.1
scalar MyScenario.node[64].veinsmobility 	totalTime 	24.7
scalar MyScenario.node[64].veinsmobility 	stopTime 	18050.9
scalar MyScenario.node[64].veinsmobility 	minSpeed 	36.457724061823
scalar MyScenario.node[64].veinsmobility 	maxSpeed 	36.587081814285
scalar MyScenario.node[64].veinsmobility 	totalDistance 	903.37492175955
scalar MyScenario.node[64].veinsmobility 	totalCO2Emission 	181.49685367016
scalar MyScenario.node[62].appl 	generatedWSMs 	0
scalar MyScenario.node[62].appl 	receivedWSMs 	0
scalar MyScenario.node[62].appl 	generatedBSMs 	29
scalar MyScenario.node[62].appl 	receivedBSMs 	215
scalar MyScenario.node[62].appl 	generatedWSAs 	0
scalar MyScenario.node[62].appl 	receivedWSAs 	0
scalar MyScenario.node[62].nic.phy80211p 	busyTime 	0.00078456140350877
scalar MyScenario.node[62].nic.mac1609_4 	ReceivedUnicastPackets 	0
scalar MyScenario.node[62].nic.mac1609_4 	ReceivedBroadcasts 	215
scalar MyScenario.node[62].nic.mac1609_4 	SentPackets 	29
scalar MyScenario.node[62].nic.mac1609_4 	SNIRLostPackets 	0
scalar MyScenario.node[62].nic.mac1609_4 	RXTXLostPackets 	0
scalar MyScenario.node[62].nic.mac1609_4 	TotalLostPackets 	0
scalar MyScenario.node[62].nic.mac1609_4 	DroppedPacketsInMac 	0
scalar MyScenario.node[62].nic.mac1609_4 	TooLittleTime 	0
scalar MyScenario.node[62].nic.mac1609_4 	TimesIntoBackoff 	29
scalar MyScenario.node[62].nic.mac1609_4 	SlotsBackoff 	39
scalar MyScenario.node[62].nic.mac1609_4 	NumInternalContention 	0
scalar MyScenario.node[62].nic.mac1609_4 	totalBusyTime 	0.025405
scalar MyScenario.node[62].veinsmobility 	startTime 	18024
scalar MyScenario.node[62].veinsmobility 	totalTime 	28.4
scalar MyScenario.node[62].veinsmobility 	stopTime 	18052.5
scalar MyScenario.node[62].veinsmobility 	minSpeed 	31.750695174397
scalar MyScenario.node[62].veinsmobility 	maxSpeed 	31.900455600955
scalar MyScenario.node[62].veinsmobility 	totalDistance 	902.73952663466
scalar MyScenario.node[62].veinsmobility 	totalCO2Emission 	166.70047715702
scalar MyScenario.node[63].appl 	generatedWSMs 	0
scalar MyScenario.node[63].appl 	receivedWSMs 	0
scalar MyScenario.node[63].appl 	generatedBSMs 	28
scalar MyScenario.node[63].appl 	receivedBSMs 	202
scalar MyScenario.node[63].appl 	generatedWSAs 	0
scalar MyScenario.node[63].appl 	receivedWSAs 	0
scalar MyScenario.node[63].nic.phy80211p 	busyTime 	0.00074761565836299
scalar MyScenario.node[63].nic.mac1609_4 	ReceivedUnicastPackets 	0
scalar MyScenario.node[63].nic.mac1609_4 	ReceivedBroadcasts 	202
scalar MyScenario.node[63].nic.mac1609_4 	SentPackets 	28
scalar MyScenario.node[63].nic.mac1609_4 	SNIRLostPackets 	0
scalar MyScenario.node[63].nic.mac1609_4 	RXTXLostPackets 	0
scalar MyScenario.node[63].nic.mac1609_4 	TotalLostPackets 	0
scalar MyScenario.node[63].nic.mac1609_4 	DroppedPacketsInMac 	0
scalar MyScenario.node[63].nic.mac1609_4 	TooLittleTime 	0
scalar MyScenario.node[63].nic.mac1609_4 	TimesIntoBackoff 	28
scalar MyScenario.node[63].nic.mac1609_4 	SlotsBackoff 	40
scalar MyScenario.node[63].nic.mac1609_4 	NumInternalContention 	0
scalar MyScenario.node[63].nic.mac1609_4 	totalBusyTime 	0.023948
scalar MyScenario.node[63].veinsmobility 	startTime 	18025.6
scalar MyScenario.node[63].veinsmobility 	totalTime 	28
scalar MyScenario.node[63].veinsmobility 	stopTime 	18053.7
scalar MyScenario.node[63].veinsmobility 	minSpeed 	31.783798695124
scalar MyScenario.node[63].veinsmobility 	maxSpeed 	33.300091530374
scalar MyScenario.node[63].veinsmobility 	totalDistance 	901.68124290826
scalar MyScenario.node[63].veinsmobility 	totalCO2Emission 	170.98631024055
scalar MyScenario.node[67].appl 	generatedWSMs 	0
scalar MyScenario.node[67].appl 	receivedWSMs 	0
scalar MyScenario.node[67].appl 	generatedBSMs 	25
scalar MyScenario.node[67].appl 	receivedBSMs 	147
scalar MyScenario.node[67].appl 	generatedWSAs 	0
scalar MyScenario.node[67].appl 	receivedWSAs 	0
scalar MyScenario.node[67].nic.phy80211p 	busyTime 	0.0005971875
scalar MyScenario.node[67].nic.mac1609_4 	ReceivedUnicastPackets 	0
scalar MyScenario.node[67].nic.mac1609_4 	ReceivedBroadcasts 	147
scalar MyScenario.node[67].nic.mac1609_4 	SentPackets 	25
scalar MyScenario.node[67].nic.mac1609_4 	SNIRLostPackets 	0
scalar MyScenario.node[67].nic.mac1609_4 	RXTXLostPackets 	0
scalar MyScenario.node[67].nic.mac1609_4 	TotalLostPackets 	0
scalar MyScenario.node[67].nic.mac1609_4 	DroppedPacketsInMac 	0
scalar MyScenario.node[67].nic.mac1609_4 	TooLittleTime 	0
scalar MyScenario.node[67].nic.mac1609_4 	TimesIntoBackoff 	25
scalar MyScenario.node[67].nic.mac1609_4 	SlotsBackoff 	20
scalar MyScenario.node[67].nic.mac1609_4 	NumInternalContention 	0
scalar MyScenario.node[67].nic.mac1609_4 	totalBusyTime 	0.017913
scalar MyScenario.node[67].veinsmobility 	startTime 	18030.3
scalar MyScenario.node[67].veinsmobility 	totalTime 	25.5
scalar MyScenario.node[67].veinsmobility 	stopTime 	18055.9
scalar MyScenario.node[67].veinsmobility 	minSpeed 	35.141764525631
scalar MyScenario.node[67].veinsmobility 	maxSpeed 	35.290385797345
scalar MyScenario.node[67].veinsmobility 	totalDistance 	899.08420245914
scalar MyScenario.node[67].veinsmobility 	totalCO2Emission 	174.21951577825
scalar MyScenario.node[69].appl 	generatedWSMs 	0
scalar MyScenario.node[69].appl 	receivedWSMs 	0
scalar MyScenario.node[69].appl 	generatedBSMs 	26
scalar MyScenario.node[69].appl 	receivedBSMs 	138
scalar MyScenario.node[69].appl 	generatedWSAs 	0
scalar MyScenario.node[69].appl 	receivedWSAs 	0
scalar MyScenario.node[69].nic.phy80211p 	busyTime 	0.00055844357976654
scalar MyScenario.node[69].nic.mac1609_4 	ReceivedUnicastPackets 	0
scalar MyScenario.node[69].nic.mac1609_4 	ReceivedBroadcasts 	138
scalar MyScenario.node[69].nic.mac1609_4 	SentPackets 	26
scalar MyScenario.node[69].nic.mac1609_4 	SNIRLostPackets 	0
scalar MyScenario.node[69].nic.mac1609_4 	RXTXLostPackets 	0
scalar MyScenario.node[69].nic.mac1609_4 	TotalLostPackets 	0
scalar MyScenario.node[69].nic.mac1609_4 	DroppedPacketsInMac 	0
scalar MyScenario.node[69].nic.mac1609_4 	TooLittleTime 	0
scalar MyScenario.node[69].nic.mac1609_4 	TimesIntoBackoff 	26
scalar MyScenario.node[69].nic.mac1609_4 	SlotsBackoff 	44
scalar MyScenario.node[69].nic.mac1609_4 	NumInternalContention 	0
scalar MyScenario.node[69].nic.mac1609_4 	totalBusyTime 	0.017082
scalar MyScenario.node[69].veinsmobility 	startTime 	18031.4
scalar MyScenario.node[69].veinsmobility 	totalTime 	25.6
scalar MyScenario.node[69].veinsmobility 	stopTime 	18057.1
scalar MyScenario.node[69].veinsmobility 	minSpeed 	35.096444154121
scalar MyScenario.node[69].veinsmobility 	maxSpeed 	35.339128497357
scalar MyScenario.node[69].veinsmobility 	totalDistance 	902.61842885392
scalar MyScenario.node[69].veinsmobility 	totalCO2Emission 	181.22330516935
scalar MyScenario.node[85].appl 	generatedWSMs 	0
scalar MyScenario.node[85].appl 	receivedWSMs 	0
scalar MyScenario.node[85].appl 	generatedBSMs 	4
scalar MyScenario.node[85].appl 	receivedBSMs 	27
scalar MyScenario.node[85].appl 	generatedWSAs 	0
scalar MyScenario.node[85].appl 	receivedWSAs 	0
scalar MyScenario.node[85].nic.phy80211p 	busyTime 	0.00071024390243902
scalar MyScenario.node[85].nic.mac1609_4 	ReceivedUnicastPackets 	0
scalar MyScenario.node[85].nic.mac1609_4 	ReceivedBroadcasts 	27
scalar MyScenario.node[85].nic.mac1609_4 	SentPackets 	4
scalar MyScenario.node[85].nic.mac1609_4 	SNIRLostPackets 	1
scalar MyScenario.node[85].nic.mac1609_4 	RXTXLostPackets 	0
scalar MyScenario.node[85].nic.mac1609_4 	TotalLostPackets 	1
scalar MyScenario.node[85].nic.mac1609_4 	DroppedPacketsInMac 	0
scalar MyScenario.node[85].nic.mac1609_4 	TooLittleTime 	0
scalar MyScenario.node[85].nic.mac1609_4 	TimesIntoBackoff 	4
scalar MyScenario.node[85].nic.mac1609_4 	SlotsBackoff 	9
scalar MyScenario.node[85].nic.mac1609_4 	NumInternalContention 	0
scalar MyScenario.node[85].nic.mac1609_4 	totalBusyTime 	0.003332
scalar MyScenario.node[85].veinsmobility 	startTime 	18059.1
scalar MyScenario.node[85].veinsmobility 	totalTime 	4
scalar MyScenario.node[85].veinsmobility 	stopTime 	18063.2
scalar MyScenario.node[85].veinsmobility 	minSpeed 	0.25803193249996
scalar MyScenario.node[85].veinsmobility 	maxSpeed 	7.9770370611854
scalar MyScenario.node[85].veinsmobility 	totalDistance 	16.89143173541
scalar MyScenario.node[85].veinsmobility 	totalCO2Emission 	13.044558418836
scalar MyScenario.node[18].appl 	generatedWSMs 	0
scalar MyScenario.node[18].appl 	receivedWSMs 	0
scalar MyScenario.node[18].appl 	generatedBSMs 	64
scalar MyScenario.node[18].appl 	receivedBSMs 	420
scalar MyScenario.node[18].appl 	generatedWSAs 	0
scalar MyScenario.node[18].appl 	receivedWSAs 	0
scalar MyScenario.node[18].nic.phy80211p 	busyTime 	0.00068895899053628
scalar MyScenario.node[18].nic.mac1609_4 	ReceivedUnicastPackets 	0
scalar MyScenario.node[18].nic.mac1609_4 	ReceivedBroadcasts 	420
scalar MyScenario.node[18].nic.mac1609_4 	SentPackets 	64
scalar MyScenario.node[18].nic.mac1609_4 	SNIRLostPackets 	0
scalar MyScenario.node[18].nic.mac1609_4 	RXTXLostPackets 	0
scalar MyScenario.node[18].nic.mac1609_4 	TotalLostPackets 	0
scalar MyScenario.node[18].nic.mac1609_4 	DroppedPacketsInMac 	0
scalar MyScenario.node[18].nic.mac1609_4 	TooLittleTime 	0
scalar MyScenario.node[18].nic.mac1609_4 	TimesIntoBackoff 	64
scalar MyScenario.node[18].nic.mac1609_4 	SlotsBackoff 	74
scalar MyScenario.node[18].nic.mac1609_4 	NumInternalContention 	0
scalar MyScenario.node[18].nic.mac1609_4 	totalBusyTime 	0.0504
scalar MyScenario.node[18].veinsmobility 	startTime 	18000
scalar MyScenario.node[18].veinsmobility 	totalTime 	63.3
scalar MyScenario.node[18].veinsmobility 	stopTime 	18063.4
scalar MyScenario.node[18].veinsmobility 	minSpeed 	0
scalar MyScenario.node[18].veinsmobility 	maxSpeed 	15.46420281267
scalar MyScenario.node[18].veinsmobility 	totalDistance 	327.06646307326
scalar MyScenario.node[18].veinsmobility 	totalCO2Emission 	148.82021403955
scalar MyScenario.node[71].appl 	generatedWSMs 	0
scalar MyScenario.node[71].appl 	receivedWSMs 	0
scalar MyScenario.node[71].appl 	generatedBSMs 	26
scalar MyScenario.node[71].appl 	receivedBSMs 	144
scalar MyScenario.node[71].appl 	generatedWSAs 	0
scalar MyScenario.node[71].appl 	receivedWSAs 	0
scalar MyScenario.node[71].nic.phy80211p 	busyTime 	0.000576
scalar MyScenario.node[71].nic.mac1609_4 	ReceivedUnicastPackets 	0
scalar MyScenario.node[71].nic.mac1609_4 	ReceivedBroadcasts 	144
scalar MyScenario.node[71].nic.mac1609_4 	SentPackets 	26
scalar MyScenario.node[71].nic.mac1609_4 	SNIRLostPackets 	0
scalar MyScenario.node[71].nic.mac1609_4 	RXTXLostPackets 	0
scalar MyScenario.node[71].nic.mac1609_4 	TotalLostPackets 	0
scalar MyScenario.node[71].nic.mac1609_4 	DroppedPacketsInMac 	0
scalar MyScenario.node[71].nic.mac1609_4 	TooLittleTime 	0
scalar MyScenario.node[71].nic.mac1609_4 	TimesIntoBackoff 	26
scalar MyScenario.node[71].nic.mac1609_4 	SlotsBackoff 	44
scalar MyScenario.node[71].nic.mac1609_4 	NumInternalContention 	0
scalar MyScenario.node[71].nic.mac1609_4 	totalBusyTime 	0.017706
scalar MyScenario.node[71].veinsmobility 	startTime 	18037.5
scalar MyScenario.node[71].veinsmobility 	totalTime 	25.9
scalar MyScenario.node[71].veinsmobility 	stopTime 	18063.5
scalar MyScenario.node[71].veinsmobility 	minSpeed 	34.795536646029
scalar MyScenario.node[71].veinsmobility 	maxSpeed 	34.929999816563
scalar MyScenario.node[71].veinsmobility 	totalDistance 	901.76407898816
scalar MyScenario.node[71].veinsmobility 	totalCO2Emission 	174.35122851074
scalar MyScenario.node[70].appl 	generatedWSMs 	0
scalar MyScenario.node[70].appl 	receivedWSMs 	0
scalar MyScenario.node[70].appl 	generatedBSMs 	33
scalar MyScenario.node[70].appl 	receivedBSMs 	10
scalar MyScenario.node[70].appl 	generatedWSAs 	0
scalar MyScenario.node[70].appl 	receivedWSAs 	0
scalar MyScenario.node[70].nic.phy80211p 	busyTime 	3.0952380952381e-05
scalar MyScenario.node[70].nic.mac1609_4 	ReceivedUnicastPackets 	0
scalar MyScenario.node[70].nic.mac1609_4 	ReceivedBroadcasts 	10
scalar MyScenario.node[70].nic.mac1609_4 	SentPackets 	33
scalar MyScenario.node[70].nic.mac1609_4 	SNIRLostPackets 	0
scalar MyScenario.node[70].nic.mac1609_4 	RXTXLostPackets 	0
scalar MyScenario.node[70].nic.mac1609_4 	TotalLostPackets 	0
scalar MyScenario.node[70].nic.mac1609_4 	DroppedPacketsInMac 	0
scalar MyScenario.node[70].nic.mac1609_4 	TooLittleTime 	0
scalar MyScenario.node[70].nic.mac1609_4 	TimesIntoBackoff 	33
scalar MyScenario.node[70].nic.mac1609_4 	SlotsBackoff 	56
scalar MyScenario.node[70].nic.mac1609_4 	NumInternalContention 	0
scalar MyScenario.node[70].nic.mac1609_4 	totalBusyTime 	0.004505
scalar MyScenario.node[70].veinsmobility 	startTime 	18032
scalar MyScenario.node[70].veinsmobility 	totalTime 	33.5
scalar MyScenario.node[70].veinsmobility 	stopTime 	18065.6
scalar MyScenario.node[70].veinsmobility 	minSpeed 	3.2434902571174
scalar MyScenario.node[70].veinsmobility 	maxSpeed 	11.534497515909
scalar MyScenario.node[70].veinsmobility 	totalDistance 	332.57674462116
scalar MyScenario.node[70].veinsmobility 	totalCO2Emission 	89.458169586385
scalar MyScenario.node[28].appl 	generatedWSMs 	0
scalar MyScenario.node[28].appl 	receivedWSMs 	0
scalar MyScenario.node[28].appl 	generatedBSMs 	74
scalar MyScenario.node[28].appl 	receivedBSMs 	243
scalar MyScenario.node[28].appl 	generatedWSAs 	0
scalar MyScenario.node[28].appl 	receivedWSAs 	0
scalar MyScenario.node[28].nic.phy80211p 	busyTime 	0.00033967741935484
scalar MyScenario.node[28].nic.mac1609_4 	ReceivedUnicastPackets 	0
scalar MyScenario.node[28].nic.mac1609_4 	ReceivedBroadcasts 	243
scalar MyScenario.node[28].nic.mac1609_4 	SentPackets 	74
scalar MyScenario.node[28].nic.mac1609_4 	SNIRLostPackets 	0
scalar MyScenario.node[28].nic.mac1609_4 	RXTXLostPackets 	0
scalar MyScenario.node[28].nic.mac1609_4 	TotalLostPackets 	0
scalar MyScenario.node[28].nic.mac1609_4 	DroppedPacketsInMac 	0
scalar MyScenario.node[28].nic.mac1609_4 	TooLittleTime 	0
scalar MyScenario.node[28].nic.mac1609_4 	TimesIntoBackoff 	74
scalar MyScenario.node[28].nic.mac1609_4 	SlotsBackoff 	113
scalar MyScenario.node[28].nic.mac1609_4 	NumInternalContention 	0
scalar MyScenario.node[28].nic.mac1609_4 	totalBusyTime 	0.033042
scalar MyScenario.node[28].veinsmobility 	startTime 	18000
scalar MyScenario.node[28].veinsmobility 	totalTime 	74.3
scalar MyScenario.node[28].veinsmobility 	stopTime 	18074.4
scalar MyScenario.node[28].veinsmobility 	minSpeed 	4.536125410787e-14
scalar MyScenario.node[28].veinsmobility 	maxSpeed 	13.449765790876
scalar MyScenario.node[28].veinsmobility 	totalDistance 	452.79992267812
scalar MyScenario.node[28].veinsmobility 	totalCO2Emission 	150.90063331447
scalar MyScenario.node[74].appl 	generatedWSMs 	0
scalar MyScenario.node[74].appl 	receivedWSMs 	0
scalar MyScenario.node[74].appl 	generatedBSMs 	24
scalar MyScenario.node[74].appl 	receivedBSMs 	155
scalar MyScenario.node[74].appl 	generatedWSAs 	0
scalar MyScenario.node[74].appl 	receivedWSAs 	0
scalar MyScenario.node[74].nic.phy80211p 	busyTime 	0.00066887966804979
scalar MyScenario.node[74].nic.mac1609_4 	ReceivedUnicastPackets 	0
scalar MyScenario.node[74].nic.mac1609_4 	ReceivedBroadcasts 	155
scalar MyScenario.node[74].nic.mac1609_4 	SentPackets 	24
scalar MyScenario.node[74].nic.mac1609_4 	SNIRLostPackets 	0
scalar MyScenario.node[74].nic.mac1609_4 	RXTXLostPackets 	0
scalar MyScenario.node[74].nic.mac1609_4 	TotalLostPackets 	0
scalar MyScenario.node[74].nic.mac1609_4 	DroppedPacketsInMac 	0
scalar MyScenario.node[74].nic.mac1609_4 	TooLittleTime 	0
scalar MyScenario.node[74].nic.mac1609_4 	TimesIntoBackoff 	24
scalar MyScenario.node[74].nic.mac1609_4 	SlotsBackoff 	36
scalar MyScenario.node[74].nic.mac1609_4 	NumInternalContention 	0
scalar MyScenario.node[74].nic.mac1609_4 	totalBusyTime 	0.01864
scalar MyScenario.node[74].veinsmobility 	startTime 	18052.9
scalar MyScenario.node[74].veinsmobility 	totalTime 	24
scalar MyScenario.node[74].veinsmobility 	stopTime 	18077
scalar MyScenario.node[74].veinsmobility 	minSpeed 	37.567582164827
scalar MyScenario.node[74].veinsmobility 	maxSpeed 	37.701922378436
scalar MyScenario.node[74].veinsmobility 	totalDistance 	903.24299953598
scalar MyScenario.node[74].veinsmobility 	totalCO2Emission 	187.85156587981
scalar MyScenario.node[79].appl 	generatedWSMs 	0
scalar MyScenario.node[79].appl 	receivedWSMs 	0
scalar MyScenario.node[79].appl 	generatedBSMs 	25
scalar MyScenario.node[79].appl 	receivedBSMs 	175
scalar MyScenario.node[79].appl 	generatedWSAs 	0
scalar MyScenario.node[79].appl 	receivedWSAs 	0
scalar MyScenario.node[79].nic.phy80211p 	busyTime 	0.00072472440944882
scalar MyScenario.node[79].nic.mac1609_4 	ReceivedUnicastPackets 	0
scalar MyScenario.node[79].nic.mac1609_4 	ReceivedBroadcasts 	175
scalar MyScenario.node[79].nic.mac1609_4 	SentPackets 	25
scalar MyScenario.node[79].nic.mac1609_4 	SNIRLostPackets 	2
scalar MyScenario.node[79].nic.mac1609_4 	RXTXLostPackets 	0
scalar MyScenario.node[79].nic.mac1609_4 	TotalLostPackets 	2
scalar MyScenario.node[79].nic.mac1609_4 	DroppedPacketsInMac 	0
scalar MyScenario.node[79].nic.mac1609_4 	TooLittleTime 	0
scalar MyScenario.node[79].nic.mac1609_4 	TimesIntoBackoff 	25
scalar MyScenario.node[79].nic.mac1609_4 	SlotsBackoff 	35
scalar MyScenario.node[79].nic.mac1609_4 	NumInternalContention 	0
scalar MyScenario.node[79].nic.mac1609_4 	totalBusyTime 	0.021014917154
scalar MyScenario.node[79].veinsmobility 	startTime 	18055.5
scalar MyScenario.node[79].veinsmobility 	totalTime 	25.3
scalar MyScenario.node[79].veinsmobility 	stopTime 	18080.9
scalar MyScenario.node[79].veinsmobility 	minSpeed 	35.419751779148
scalar MyScenario.node[79].veinsmobility 	maxSpeed 	35.568741082279
scalar MyScenario.node[79].veinsmobility 	totalDistance 	898.95299106084
scalar MyScenario.node[79].veinsmobility 	totalCO2Emission 	178.6988636023
scalar MyScenario.node[39].appl 	generatedWSMs 	0
scalar MyScenario.node[39].appl 	receivedWSMs 	0
scalar MyScenario.node[39].appl 	generatedBSMs 	79
scalar MyScenario.node[39].appl 	receivedBSMs 	11
scalar MyScenario.node[39].appl 	generatedWSAs 	0
scalar MyScenario.node[39].appl 	receivedWSAs 	0
scalar MyScenario.node[39].nic.phy80211p 	busyTime 	1.4335839598997e-05
scalar MyScenario.node[39].nic.mac1609_4 	ReceivedUnicastPackets 	0
scalar MyScenario.node[39].nic.mac1609_4 	ReceivedBroadcasts 	11
scalar MyScenario.node[39].nic.mac1609_4 	SentPackets 	79
scalar MyScenario.node[39].nic.mac1609_4 	SNIRLostPackets 	0
scalar MyScenario.node[39].nic.mac1609_4 	RXTXLostPackets 	0
scalar MyScenario.node[39].nic.mac1609_4 	TotalLostPackets 	0
scalar MyScenario.node[39].nic.mac1609_4 	DroppedPacketsInMac 	0
scalar MyScenario.node[39].nic.mac1609_4 	TooLittleTime 	0
scalar MyScenario.node[39].nic.mac1609_4 	TimesIntoBackoff 	79
scalar MyScenario.node[39].nic.mac1609_4 	SlotsBackoff 	122
scalar MyScenario.node[39].nic.mac1609_4 	NumInternalContention 	0
scalar MyScenario.node[39].nic.mac1609_4 	totalBusyTime 	0.009439
scalar MyScenario.node[39].veinsmobility 	startTime 	18001.1
scalar MyScenario.node[39].veinsmobility 	totalTime 	79.7
scalar MyScenario.node[39].veinsmobility 	stopTime 	18080.9
scalar MyScenario.node[39].veinsmobility 	minSpeed 	0
scalar MyScenario.node[39].veinsmobility 	maxSpeed 	16.34211112023
scalar MyScenario.node[39].veinsmobility 	totalDistance 	687.9533496317
scalar MyScenario.node[39].veinsmobility 	totalCO2Emission 	229.05022313764
scalar MyScenario.node[78].appl 	generatedWSMs 	0
[...]
scalar MyScenario.node[73].nic.mac1609_4 	SNIRLostPackets 	0
scalar MyScenario.node[73].nic.mac1609_4 	RXTXLostPackets 	0
scalar MyScenario.node[73].nic.mac1609_4 	TotalLostPackets 	0
scalar MyScenario.node[73].nic.mac1609_4 	DroppedPacketsInMac 	0
scalar MyScenario.node[73].nic.mac1609_4 	TooLittleTime 	0
scalar MyScenario.node[73].nic.mac1609_4 	TimesIntoBackoff 	54
scalar MyScenario.node[73].nic.mac1609_4 	SlotsBackoff 	86
scalar MyScenario.node[73].nic.mac1609_4 	NumInternalContention 	0
scalar MyScenario.node[73].nic.mac1609_4 	totalBusyTime 	0.036974
scalar MyScenario.node[73].veinsmobility 	startTime 	18045.8
scalar MyScenario.node[73].veinsmobility 	totalTime 	54.2
scalar MyScenario.node[73].veinsmobility 	stopTime 	18100
scalar MyScenario.node[73].veinsmobility 	minSpeed 	2.5095090306699e-12
scalar MyScenario.node[73].veinsmobility 	maxSpeed 	14.193935285109
scalar MyScenario.node[73].veinsmobility 	totalDistance 	565.65534730382
scalar MyScenario.node[73].veinsmobility 	totalCO2Emission 	168.0826024838
scalar MyScenario.node[101].appl 	generatedWSMs 	0
scalar MyScenario.node[101].appl 	receivedWSMs 	0
scalar MyScenario.node[101].appl 	generatedBSMs 	12
scalar MyScenario.node[101].appl 	receivedBSMs 	59
scalar MyScenario.node[101].appl 	generatedWSAs 	0
scalar MyScenario.node[101].appl 	receivedWSAs 	0
scalar MyScenario.node[101].nic.phy80211p 	busyTime 	0.00051563025210084
scalar MyScenario.node[101].nic.mac1609_4 	ReceivedUnicastPackets 	0
scalar MyScenario.node[101].nic.mac1609_4 	ReceivedBroadcasts 	59
scalar MyScenario.node[101].nic.mac1609_4 	SentPackets 	12
scalar MyScenario.node[101].nic.mac1609_4 	SNIRLostPackets 	0
scalar MyScenario.node[101].nic.mac1609_4 	RXTXLostPackets 	0
scalar MyScenario.node[101].nic.mac1609_4 	TotalLostPackets 	0
scalar MyScenario.node[101].nic.mac1609_4 	DroppedPacketsInMac 	0
scalar MyScenario.node[101].nic.mac1609_4 	TooLittleTime 	0
scalar MyScenario.node[101].nic.mac1609_4 	TimesIntoBackoff 	12
scalar MyScenario.node[101].nic.mac1609_4 	SlotsBackoff 	25
scalar MyScenario.node[101].nic.mac1609_4 	NumInternalContention 	0
scalar MyScenario.node[101].nic.mac1609_4 	totalBusyTime 	0.007396
scalar MyScenario.node[101].veinsmobility 	startTime 	18088.1
scalar MyScenario.node[101].veinsmobility 	totalTime 	11.9
scalar MyScenario.node[101].veinsmobility 	stopTime 	18100
scalar MyScenario.node[101].veinsmobility 	minSpeed 	29.281946031745
scalar MyScenario.node[101].veinsmobility 	maxSpeed 	37.202318764888
scalar MyScenario.node[101].veinsmobility 	totalDistance 	425.72621675273
scalar MyScenario.node[101].veinsmobility 	totalCO2Emission 	147.17115583845
scalar MyScenario.node[92].appl 	generatedWSMs 	0
scalar MyScenario.node[92].appl 	receivedWSMs 	0
scalar MyScenario.node[92].appl 	generatedBSMs 	23
scalar MyScenario.node[92].appl 	receivedBSMs 	65
scalar MyScenario.node[92].appl 	generatedWSAs 	0
scalar MyScenario.node[92].appl 	receivedWSAs 	0
scalar MyScenario.node[92].nic.phy80211p 	busyTime 	0.00029264069264069
scalar MyScenario.node[92].nic.mac1609_4 	ReceivedUnicastPackets 	0
scalar MyScenario.node[92].nic.mac1609_4 	ReceivedBroadcasts 	65
scalar MyScenario.node[92].nic.mac1609_4 	SentPackets 	23
scalar MyScenario.node[92].nic.mac1609_4 	SNIRLostPackets 	0
scalar MyScenario.node[92].nic.mac1609_4 	RXTXLostPackets 	0
scalar MyScenario.node[92].nic.mac1609_4 	TotalLostPackets 	0
scalar MyScenario.node[92].nic.mac1609_4 	DroppedPacketsInMac 	0
scalar MyScenario.node[92].nic.mac1609_4 	TooLittleTime 	0
scalar MyScenario.node[92].nic.mac1609_4 	TimesIntoBackoff 	23
scalar MyScenario.node[92].nic.mac1609_4 	SlotsBackoff 	30
scalar MyScenario.node[92].nic.mac1609_4 	NumInternalContention 	0
scalar MyScenario.node[92].nic.mac1609_4 	totalBusyTime 	0.009175
scalar MyScenario.node[92].veinsmobility 	startTime 	18076.9
scalar MyScenario.node[92].veinsmobility 	totalTime 	23.1
scalar MyScenario.node[92].veinsmobility 	stopTime 	18100
scalar MyScenario.node[92].veinsmobility 	minSpeed 	10.951580957742
scalar MyScenario.node[92].veinsmobility 	maxSpeed 	11.086230409578
scalar MyScenario.node[92].veinsmobility 	totalDistance 	254.45901166749
scalar MyScenario.node[92].veinsmobility 	totalCO2Emission 	48.155777065538
scalar MyScenario.node[26].appl 	generatedWSMs 	0
scalar MyScenario.node[26].appl 	receivedWSMs 	0
scalar MyScenario.node[26].appl 	generatedBSMs 	100
scalar MyScenario.node[26].appl 	receivedBSMs 	295
scalar MyScenario.node[26].appl 	generatedWSAs 	0
scalar MyScenario.node[26].appl 	receivedWSAs 	0
scalar MyScenario.node[26].nic.phy80211p 	busyTime 	0.0003068
scalar MyScenario.node[26].nic.mac1609_4 	ReceivedUnicastPackets 	0
scalar MyScenario.node[26].nic.mac1609_4 	ReceivedBroadcasts 	295
scalar MyScenario.node[26].nic.mac1609_4 	SentPackets 	100
scalar MyScenario.node[26].nic.mac1609_4 	SNIRLostPackets 	0
scalar MyScenario.node[26].nic.mac1609_4 	RXTXLostPackets 	0
scalar MyScenario.node[26].nic.mac1609_4 	TotalLostPackets 	0
scalar MyScenario.node[26].nic.mac1609_4 	DroppedPacketsInMac 	0
scalar MyScenario.node[26].nic.mac1609_4 	TooLittleTime 	0
scalar MyScenario.node[26].nic.mac1609_4 	TimesIntoBackoff 	100
scalar MyScenario.node[26].nic.mac1609_4 	SlotsBackoff 	151
scalar MyScenario.node[26].nic.mac1609_4 	NumInternalContention 	0
scalar MyScenario.node[26].nic.mac1609_4 	totalBusyTime 	0.04118
scalar MyScenario.node[26].veinsmobility 	startTime 	18000
scalar MyScenario.node[26].veinsmobility 	totalTime 	100
scalar MyScenario.node[26].veinsmobility 	stopTime 	18100
scalar MyScenario.node[26].veinsmobility 	minSpeed 	0
scalar MyScenario.node[26].veinsmobility 	maxSpeed 	14.268445141895
scalar MyScenario.node[26].veinsmobility 	totalDistance 	829.22853098753
scalar MyScenario.node[26].veinsmobility 	totalCO2Emission 	221.94723124323
scalar MyScenario.node[68].appl 	generatedWSMs 	0
scalar MyScenario.node[68].appl 	receivedWSMs 	0
scalar MyScenario.node[68].appl 	generatedBSMs 	69
scalar MyScenario.node[68].appl 	receivedBSMs 	382
scalar MyScenario.node[68].appl 	generatedWSAs 	0
scalar MyScenario.node[68].appl 	receivedWSAs 	0
scalar MyScenario.node[68].nic.phy80211p 	busyTime 	0.00057162589928058
scalar MyScenario.node[68].nic.mac1609_4 	ReceivedUnicastPackets 	0
scalar MyScenario.node[68].nic.mac1609_4 	ReceivedBroadcasts 	382
scalar MyScenario.node[68].nic.mac1609_4 	SentPackets 	69
scalar MyScenario.node[68].nic.mac1609_4 	SNIRLostPackets 	0
scalar MyScenario.node[68].nic.mac1609_4 	RXTXLostPackets 	0
scalar MyScenario.node[68].nic.mac1609_4 	TotalLostPackets 	0
scalar MyScenario.node[68].nic.mac1609_4 	DroppedPacketsInMac 	0
scalar MyScenario.node[68].nic.mac1609_4 	TooLittleTime 	0
scalar MyScenario.node[68].nic.mac1609_4 	TimesIntoBackoff 	69
scalar MyScenario.node[68].nic.mac1609_4 	SlotsBackoff 	103
scalar MyScenario.node[68].nic.mac1609_4 	NumInternalContention 	0
scalar MyScenario.node[68].nic.mac1609_4 	totalBusyTime 	0.046973
scalar MyScenario.node[68].veinsmobility 	startTime 	18030.5
scalar MyScenario.node[68].veinsmobility 	totalTime 	69.5
scalar MyScenario.node[68].veinsmobility 	stopTime 	18100
scalar MyScenario.node[68].veinsmobility 	minSpeed 	4.5367759076235e-14
scalar MyScenario.node[68].veinsmobility 	maxSpeed 	13.388370669627
scalar MyScenario.node[68].veinsmobility 	totalDistance 	286.99370708549
scalar MyScenario.node[68].veinsmobility 	totalCO2Emission 	119.07089149044
scalar MyScenario.node[97].appl 	generatedWSMs 	0
scalar MyScenario.node[97].appl 	receivedWSMs 	0
scalar MyScenario.node[97].appl 	generatedBSMs 	14
scalar MyScenario.node[97].appl 	receivedBSMs 	41
scalar MyScenario.node[97].appl 	generatedWSAs 	0
scalar MyScenario.node[97].appl 	receivedWSAs 	0
scalar MyScenario.node[97].nic.phy80211p 	busyTime 	0.00030676258992806
scalar MyScenario.node[97].nic.mac1609_4 	ReceivedUnicastPackets 	0
scalar MyScenario.node[97].nic.mac1609_4 	ReceivedBroadcasts 	41
scalar MyScenario.node[97].nic.mac1609_4 	SentPackets 	14
scalar MyScenario.node[97].nic.mac1609_4 	SNIRLostPackets 	0
scalar MyScenario.node[97].nic.mac1609_4 	RXTXLostPackets 	0
scalar MyScenario.node[97].nic.mac1609_4 	TotalLostPackets 	0
scalar MyScenario.node[97].nic.mac1609_4 	DroppedPacketsInMac 	0
scalar MyScenario.node[97].nic.mac1609_4 	TooLittleTime 	0
scalar MyScenario.node[97].nic.mac1609_4 	TimesIntoBackoff 	14
scalar MyScenario.node[97].nic.mac1609_4 	SlotsBackoff 	31
scalar MyScenario.node[97].nic.mac1609_4 	NumInternalContention 	0
scalar MyScenario.node[97].nic.mac1609_4 	totalBusyTime 	0.005734
scalar MyScenario.node[97].veinsmobility 	startTime 	18086.1
scalar MyScenario.node[97].veinsmobility 	totalTime 	13.9
scalar MyScenario.node[97].veinsmobility 	stopTime 	18100
scalar MyScenario.node[97].veinsmobility 	minSpeed 	15.877073247651
scalar MyScenario.node[97].veinsmobility 	maxSpeed 	16.003048834097
scalar MyScenario.node[97].veinsmobility 	totalDistance 	221.5212122213
scalar MyScenario.node[97].veinsmobility 	totalCO2Emission 	35.687373203733
scalar MyScenario.node[107].appl 	generatedWSMs 	0
scalar MyScenario.node[107].appl 	receivedWSMs 	0
scalar MyScenario.node[107].appl 	generatedBSMs 	1
scalar MyScenario.node[107].appl 	receivedBSMs 	0
scalar MyScenario.node[107].appl 	generatedWSAs 	0
scalar MyScenario.node[107].appl 	receivedWSAs 	0
scalar MyScenario.node[107].nic.phy80211p 	busyTime 	0
scalar MyScenario.node[107].nic.mac1609_4 	ReceivedUnicastPackets 	0
scalar MyScenario.node[107].nic.mac1609_4 	ReceivedBroadcasts 	0
scalar MyScenario.node[107].nic.mac1609_4 	SentPackets 	1
scalar MyScenario.node[107].nic.mac1609_4 	SNIRLostPackets 	0
scalar MyScenario.node[107].nic.mac1609_4 	RXTXLostPackets 	0
scalar MyScenario.node[107].nic.mac1609_4 	TotalLostPackets 	0
scalar MyScenario.node[107].nic.mac1609_4 	DroppedPacketsInMac 	0
scalar MyScenario.node[107].nic.mac1609_4 	TooLittleTime 	0
scalar MyScenario.node[107].nic.mac1609_4 	TimesIntoBackoff 	1
scalar MyScenario.node[107].nic.mac1609_4 	SlotsBackoff 	1
scalar MyScenario.node[107].nic.mac1609_4 	NumInternalContention 	0
scalar MyScenario.node[107].nic.mac1609_4 	totalBusyTime 	0.000105
scalar MyScenario.node[107].veinsmobility 	startTime 	18099.2
scalar MyScenario.node[107].veinsmobility 	totalTime 	0.8
scalar MyScenario.node[107].veinsmobility 	stopTime 	18100
scalar MyScenario.node[107].veinsmobility 	minSpeed 	15.196230146061
scalar MyScenario.node[107].veinsmobility 	maxSpeed 	15.2941570115
scalar MyScenario.node[107].veinsmobility 	totalDistance 	12.231522227279
scalar MyScenario.node[107].veinsmobility 	totalCO2Emission 	1.7813680695376
scalar MyScenario.node[77].appl 	generatedWSMs 	0
scalar MyScenario.node[77].appl 	receivedWSMs 	0
scalar MyScenario.node[77].appl 	generatedBSMs 	45
scalar MyScenario.node[77].appl 	receivedBSMs 	355
scalar MyScenario.node[77].appl 	generatedWSAs 	0
scalar MyScenario.node[77].appl 	receivedWSAs 	0
scalar MyScenario.node[77].nic.phy80211p 	busyTime 	0.00081142857142857
scalar MyScenario.node[77].nic.mac1609_4 	ReceivedUnicastPackets 	0
scalar MyScenario.node[77].nic.mac1609_4 	ReceivedBroadcasts 	355
scalar MyScenario.node[77].nic.mac1609_4 	SentPackets 	45
scalar MyScenario.node[77].nic.mac1609_4 	SNIRLostPackets 	0
scalar MyScenario.node[77].nic.mac1609_4 	RXTXLostPackets 	0
scalar MyScenario.node[77].nic.mac1609_4 	TotalLostPackets 	0
scalar MyScenario.node[77].nic.mac1609_4 	DroppedPacketsInMac 	0
scalar MyScenario.node[77].nic.mac1609_4 	TooLittleTime 	0
scalar MyScenario.node[77].nic.mac1609_4 	TimesIntoBackoff 	45
scalar MyScenario.node[77].nic.mac1609_4 	SlotsBackoff 	70
scalar MyScenario.node[77].nic.mac1609_4 	NumInternalContention 	0
scalar MyScenario.node[77].nic.mac1609_4 	totalBusyTime 	0.041645
scalar MyScenario.node[77].veinsmobility 	startTime 	18054.5
scalar MyScenario.node[77].veinsmobility 	totalTime 	45.5
scalar MyScenario.node[77].veinsmobility 	stopTime 	18100
scalar MyScenario.node[77].veinsmobility 	minSpeed 	0
scalar MyScenario.node[77].veinsmobility 	maxSpeed 	14.871507567083
scalar MyScenario.node[77].veinsmobility 	totalDistance 	323.14100605488
scalar MyScenario.node[77].veinsmobility 	totalCO2Emission 	99.260248384722
scalar MyScenario.node[45].appl 	generatedWSMs 	0
scalar MyScenario.node[45].appl 	receivedWSMs 	0
scalar MyScenario.node[45].appl 	generatedBSMs 	95
scalar MyScenario.node[45].appl 	receivedBSMs 	132
scalar MyScenario.node[45].appl 	generatedWSAs 	0
scalar MyScenario.node[45].appl 	receivedWSAs 	0
scalar MyScenario.node[45].nic.phy80211p 	busyTime 	0.00014465753424657
scalar MyScenario.node[45].nic.mac1609_4 	ReceivedUnicastPackets 	0
scalar MyScenario.node[45].nic.mac1609_4 	ReceivedBroadcasts 	132
scalar MyScenario.node[45].nic.mac1609_4 	SentPackets 	95
scalar MyScenario.node[45].nic.mac1609_4 	SNIRLostPackets 	0
scalar MyScenario.node[45].nic.mac1609_4 	RXTXLostPackets 	0
scalar MyScenario.node[45].nic.mac1609_4 	TotalLostPackets 	0
scalar MyScenario.node[45].nic.mac1609_4 	DroppedPacketsInMac 	0
scalar MyScenario.node[45].nic.mac1609_4 	TooLittleTime 	0
scalar MyScenario.node[45].nic.mac1609_4 	TimesIntoBackoff 	95
scalar MyScenario.node[45].nic.mac1609_4 	SlotsBackoff 	151
scalar MyScenario.node[45].nic.mac1609_4 	NumInternalContention 	0
scalar MyScenario.node[45].nic.mac1609_4 	totalBusyTime 	0.023703
scalar MyScenario.node[45].veinsmobility 	startTime 	18005.1
scalar MyScenario.node[45].veinsmobility 	totalTime 	94.9
scalar MyScenario.node[45].veinsmobility 	stopTime 	18100
scalar MyScenario.node[45].veinsmobility 	minSpeed 	0.29146805924247
scalar MyScenario.node[45].veinsmobility 	maxSpeed 	17.731890011611
scalar MyScenario.node[45].veinsmobility 	totalDistance 	1234.0031630523
scalar MyScenario.node[45].veinsmobility 	totalCO2Emission 	350.41974866982
scalar MyScenario.node[30].appl 	generatedWSMs 	0
scalar MyScenario.node[30].appl 	receivedWSMs 	0
scalar MyScenario.node[30].appl 	generatedBSMs 	100
scalar MyScenario.node[30].appl 	receivedBSMs 	663
scalar MyScenario.node[30].appl 	generatedWSAs 	0
scalar MyScenario.node[30].appl 	receivedWSAs 	0
scalar MyScenario.node[30].nic.phy80211p 	busyTime 	0.00068952
scalar MyScenario.node[30].nic.mac1609_4 	ReceivedUnicastPackets 	0
scalar MyScenario.node[30].nic.mac1609_4 	ReceivedBroadcasts 	663
scalar MyScenario.node[30].nic.mac1609_4 	SentPackets 	100
scalar MyScenario.node[30].nic.mac1609_4 	SNIRLostPackets 	0
scalar MyScenario.node[30].nic.mac1609_4 	RXTXLostPackets 	0
scalar MyScenario.node[30].nic.mac1609_4 	TotalLostPackets 	0
scalar MyScenario.node[30].nic.mac1609_4 	DroppedPacketsInMac 	0
scalar MyScenario.node[30].nic.mac1609_4 	TooLittleTime 	0
scalar MyScenario.node[30].nic.mac1609_4 	TimesIntoBackoff 	100
scalar MyScenario.node[30].nic.mac1609_4 	SlotsBackoff 	141
scalar MyScenario.node[30].nic.mac1609_4 	NumInternalContention 	0
scalar MyScenario.node[30].nic.mac1609_4 	totalBusyTime 	0.079452
scalar MyScenario.node[30].veinsmobility 	startTime 	18000
scalar MyScenario.node[30].veinsmobility 	totalTime 	100
scalar MyScenario.node[30].veinsmobility 	stopTime 	18100
scalar MyScenario.node[30].veinsmobility 	minSpeed 	0
scalar MyScenario.node[30].veinsmobility 	maxSpeed 	12.998930103329
scalar MyScenario.node[30].veinsmobility 	totalDistance 	707.33359667119
scalar MyScenario.node[30].veinsmobility 	totalCO2Emission 	181.330389289
scalar MyScenario.node[32].appl 	generatedWSMs 	0
scalar MyScenario.node[32].appl 	receivedWSMs 	0
scalar MyScenario.node[32].appl 	generatedBSMs 	100
scalar MyScenario.node[32].appl 	receivedBSMs 	639
scalar MyScenario.node[32].appl 	generatedWSAs 	0
scalar MyScenario.node[32].appl 	receivedWSAs 	0
scalar MyScenario.node[32].nic.phy80211p 	busyTime 	0.00066456
scalar MyScenario.node[32].nic.mac1609_4 	ReceivedUnicastPackets 	0
scalar MyScenario.node[32].nic.mac1609_4 	ReceivedBroadcasts 	639
scalar MyScenario.node[32].nic.mac1609_4 	SentPackets 	100
scalar MyScenario.node[32].nic.mac1609_4 	SNIRLostPackets 	0
scalar MyScenario.node[32].nic.mac1609_4 	RXTXLostPackets 	0
scalar MyScenario.node[32].nic.mac1609_4 	TotalLostPackets 	0
scalar MyScenario.node[32].nic.mac1609_4 	DroppedPacketsInMac 	0
scalar MyScenario.node[32].nic.mac1609_4 	TooLittleTime 	0
scalar MyScenario.node[32].nic.mac1609_4 	TimesIntoBackoff 	100
scalar MyScenario.node[32].nic.mac1609_4 	SlotsBackoff 	167
scalar MyScenario.node[32].nic.mac1609_4 	NumInternalContention 	0
scalar MyScenario.node[32].nic.mac1609_4 	totalBusyTime 	0.076956
scalar MyScenario.node[32].veinsmobility 	startTime 	18000
scalar MyScenario.node[32].veinsmobility 	totalTime 	100
scalar MyScenario.node[32].veinsmobility 	stopTime 	18100
scalar MyScenario.node[32].veinsmobility 	minSpeed 	0
scalar MyScenario.node[32].veinsmobility 	maxSpeed 	13.745732636462
scalar MyScenario.node[32].veinsmobility 	totalDistance 	680.713674988
scalar MyScenario.node[32].veinsmobility 	totalCO2Emission 	197.14298615412
scalar MyScenario.node[33].appl 	generatedWSMs 	0
scalar MyScenario.node[33].appl 	receivedWSMs 	0
scalar MyScenario.node[33].appl 	generatedBSMs 	100
scalar MyScenario.node[33].appl 	receivedBSMs 	523
scalar MyScenario.node[33].appl 	generatedWSAs 	0
scalar MyScenario.node[33].appl 	receivedWSAs 	0
scalar MyScenario.node[33].nic.phy80211p 	busyTime 	0.00054392
scalar MyScenario.node[33].nic.mac1609_4 	ReceivedUnicastPackets 	0
scalar MyScenario.node[33].nic.mac1609_4 	ReceivedBroadcasts 	523
scalar MyScenario.node[33].nic.mac1609_4 	SentPackets 	100
scalar MyScenario.node[33].nic.mac1609_4 	SNIRLostPackets 	0
scalar MyScenario.node[33].nic.mac1609_4 	RXTXLostPackets 	0
scalar MyScenario.node[33].nic.mac1609_4 	TotalLostPackets 	0
scalar MyScenario.node[33].nic.mac1609_4 	DroppedPacketsInMac 	0
scalar MyScenario.node[33].nic.mac1609_4 	TooLittleTime 	0
scalar MyScenario.node[33].nic.mac1609_4 	TimesIntoBackoff 	100
scalar MyScenario.node[33].nic.mac1609_4 	SlotsBackoff 	136
scalar MyScenario.node[33].nic.mac1609_4 	NumInternalContention 	0
scalar MyScenario.node[33].nic.mac1609_4 	totalBusyTime 	0.064892
scalar MyScenario.node[33].veinsmobility 	startTime 	18000
scalar MyScenario.node[33].veinsmobility 	totalTime 	100
scalar MyScenario.node[33].veinsmobility 	stopTime 	18100
scalar MyScenario.node[33].veinsmobility 	minSpeed 	0
scalar MyScenario.node[33].veinsmobility 	maxSpeed 	15.855716970587
scalar MyScenario.node[33].veinsmobility 	totalDistance 	1090.5695639229
scalar MyScenario.node[33].veinsmobility 	totalCO2Emission 	234.25744023653
scalar MyScenario.node[36].appl 	generatedWSMs 	0
scalar MyScenario.node[36].appl 	receivedWSMs 	0
scalar MyScenario.node[36].appl 	generatedBSMs 	100
scalar MyScenario.node[36].appl 	receivedBSMs 	650
scalar MyScenario.node[36].appl 	generatedWSAs 	0
scalar MyScenario.node[36].appl 	receivedWSAs 	0
scalar MyScenario.node[36].nic.phy80211p 	busyTime 	0.000676
scalar MyScenario.node[36].nic.mac1609_4 	ReceivedUnicastPackets 	0
scalar MyScenario.node[36].nic.mac1609_4 	ReceivedBroadcasts 	650
scalar MyScenario.node[36].nic.mac1609_4 	SentPackets 	100
scalar MyScenario.node[36].nic.mac1609_4 	SNIRLostPackets 	0
scalar MyScenario.node[36].nic.mac1609_4 	RXTXLostPackets 	0
scalar MyScenario.node[36].nic.mac1609_4 	TotalLostPackets 	0
scalar MyScenario.node[36].nic.mac1609_4 	DroppedPacketsInMac 	0
scalar MyScenario.node[36].nic.mac1609_4 	TooLittleTime 	0
scalar MyScenario.node[36].nic.mac1609_4 	TimesIntoBackoff 	100
scalar MyScenario.node[36].nic.mac1609_4 	SlotsBackoff 	142
scalar MyScenario.node[36].nic.mac1609_4 	NumInternalContention 	0
scalar MyScenario.node[36].nic.mac1609_4 	totalBusyTime 	0.0781
scalar MyScenario.node[36].veinsmobility 	startTime 	18000
scalar MyScenario.node[36].veinsmobility 	totalTime 	100
scalar MyScenario.node[36].veinsmobility 	stopTime 	18100
scalar MyScenario.node[36].veinsmobility 	minSpeed 	0
scalar MyScenario.node[36].veinsmobility 	maxSpeed 	14.390623032626
scalar MyScenario.node[36].veinsmobility 	totalDistance 	706.34064756707
scalar MyScenario.node[36].veinsmobility 	totalCO2Emission 	217.63832378639
