version 2
run AttackerType16-19-20180205-19:49:15-104449
attr configname AttackerType16
attr datetime 20180205-19:49:15
attr experiment AttackerType16
attr inifile omnetpp_19.ini
attr iterationvars "$start=5, $0=0.1"
attr iterationvarsf start=5,0.1-
attr measurement "$start=5, $0=0.1"
attr network MyScenario
attr processid 104449
attr repetition 4
attr replication #4
attr resultdir results
attr runnumber 19
attr seedset 4
attr start 5
param **.**.**.debug false
param **.**.nic.**.debug false
param **.coreDebug false
param **.debug false
param *.**.nic.mac1609_4.bitrate 6Mbps
param *.**.nic.mac1609_4.txPower 20mW
param *.**.nic.mac1609_4.useServiceChannel false
param *.**.nic.phy80211p.analogueModels "xmldoc(\"config.xml\")"
param *.**.nic.phy80211p.antenna "xmldoc(\"antenna.xml\", \"/root/Antenna[@id='monopole']\")"
param *.**.nic.phy80211p.decider "xmldoc(\"config.xml\")"
param *.**.nic.phy80211p.sensitivity -89dBm
param *.**.nic.phy80211p.thermalNoise -110dBm
param *.**.nic.phy80211p.usePropagationDelay true
param *.**.nic.phy80211p.useThermalNoise true
param *.**.veinsmobility.x 0
param *.**.veinsmobility.y 0
param *.**.veinsmobility.z 1.895
param *.**.veinsmobilityType.debug false
param *.annotations.draw false
param *.connectionManager.drawMaxIntfDist false
param *.connectionManager.maxInterfDist 2600m
param *.connectionManager.sendDirect true
param *.manager.autoShutdown true
param *.manager.configFile "\"dua.static.sumocfg\""
param *.manager.firstStepAt 5h
param *.manager.host "\"localhost\""
param *.manager.launchConfig "xmldoc(\"luxembourg.launchd.xml\")"
param *.manager.roiRects "\"2300,5400-6300,6300\""
param *.manager.seed 4
param *.manager.updateInterval 0.1s
param *.node[*].appl.attackerProbability 0.1
param *.node[*].appl.attackerType 16
param *.node[*].appl.beaconInterval 1s
param *.node[*].appl.dataOnSch false
param *.node[*].appl.headerLength "80 bit"
param *.node[*].appl.sendBeacons true
param *.node[*].appl.traceGroundTruthJSONFile "\"GroundTruthJSONlog\""
param *.node[*].appl.traceJSONFile "\"JSONlog-\""
param *.node[*].applType "\"AttackerApp\""
param *.obstacles.debug false
param *.obstacles.obstacles "xmldoc(\"config.xml\", \"//AnalogueModel[@type='SimpleObstacleShadowing']/obstacles\")"
param *.playgroundSizeX 13640m
param *.playgroundSizeY 11500m
param *.playgroundSizeZ 50m

scalar _runattrs_ 	start 	5
scalar MyScenario.node[21].appl 	generatedWSMs 	0
scalar MyScenario.node[21].appl 	receivedWSMs 	0
scalar MyScenario.node[21].appl 	generatedBSMs 	6
scalar MyScenario.node[21].appl 	receivedBSMs 	5
scalar MyScenario.node[21].appl 	generatedWSAs 	0
scalar MyScenario.node[21].appl 	receivedWSAs 	0
scalar MyScenario.node[21].nic.phy80211p 	busyTime 	8.125e-05
scalar MyScenario.node[21].nic.mac1609_4 	ReceivedUnicastPackets 	0
scalar MyScenario.node[21].nic.mac1609_4 	ReceivedBroadcasts 	5
scalar MyScenario.node[21].nic.mac1609_4 	SentPackets 	6
scalar MyScenario.node[21].nic.mac1609_4 	SNIRLostPackets 	0
scalar MyScenario.node[21].nic.mac1609_4 	RXTXLostPackets 	0
scalar MyScenario.node[21].nic.mac1609_4 	TotalLostPackets 	0
scalar MyScenario.node[21].nic.mac1609_4 	DroppedPacketsInMac 	0
scalar MyScenario.node[21].nic.mac1609_4 	TooLittleTime 	0
scalar MyScenario.node[21].nic.mac1609_4 	TimesIntoBackoff 	6
scalar MyScenario.node[21].nic.mac1609_4 	SlotsBackoff 	10
scalar MyScenario.node[21].nic.mac1609_4 	NumInternalContention 	0
scalar MyScenario.node[21].nic.mac1609_4 	totalBusyTime 	0.00115
scalar MyScenario.node[21].veinsmobility 	startTime 	18000
scalar MyScenario.node[21].veinsmobility 	totalTime 	6.3
scalar MyScenario.node[21].veinsmobility 	stopTime 	18006.4
scalar MyScenario.node[21].veinsmobility 	minSpeed 	0.2628760538979
scalar MyScenario.node[21].veinsmobility 	maxSpeed 	9.275873240901
scalar MyScenario.node[21].veinsmobility 	totalDistance 	31.672230538873
scalar MyScenario.node[21].veinsmobility 	totalCO2Emission 	18.389902897312
scalar MyScenario.node[3].appl 	generatedWSMs 	0
scalar MyScenario.node[3].appl 	receivedWSMs 	0
scalar MyScenario.node[3].appl 	generatedBSMs 	8
scalar MyScenario.node[3].appl 	receivedBSMs 	63
scalar MyScenario.node[3].appl 	generatedWSAs 	0
scalar MyScenario.node[3].appl 	receivedWSAs 	0
scalar MyScenario.node[3].nic.phy80211p 	busyTime 	0.00091178082191781
scalar MyScenario.node[3].nic.mac1609_4 	ReceivedUnicastPackets 	0
scalar MyScenario.node[3].nic.mac1609_4 	ReceivedBroadcasts 	63
scalar MyScenario.node[3].nic.mac1609_4 	SentPackets 	8
scalar MyScenario.node[3].nic.mac1609_4 	SNIRLostPackets 	1
scalar MyScenario.node[3].nic.mac1609_4 	RXTXLostPackets 	0
scalar MyScenario.node[3].nic.mac1609_4 	TotalLostPackets 	1
scalar MyScenario.node[3].nic.mac1609_4 	DroppedPacketsInMac 	0
scalar MyScenario.node[3].nic.mac1609_4 	TooLittleTime 	0
scalar MyScenario.node[3].nic.mac1609_4 	TimesIntoBackoff 	8
scalar MyScenario.node[3].nic.mac1609_4 	SlotsBackoff 	8
scalar MyScenario.node[3].nic.mac1609_4 	NumInternalContention 	0
scalar MyScenario.node[3].nic.mac1609_4 	totalBusyTime 	0.007496
scalar MyScenario.node[3].veinsmobility 	startTime 	18000
scalar MyScenario.node[3].veinsmobility 	totalTime 	7.2
scalar MyScenario.node[3].veinsmobility 	stopTime 	18007.3
scalar MyScenario.node[3].veinsmobility 	minSpeed 	31.939631201747
scalar MyScenario.node[3].veinsmobility 	maxSpeed 	32.084010672221
scalar MyScenario.node[3].veinsmobility 	totalDistance 	230.74755579154
scalar MyScenario.node[3].veinsmobility 	totalCO2Emission 	42.641272027332
scalar MyScenario.node[14].appl 	generatedWSMs 	0
scalar MyScenario.node[14].appl 	receivedWSMs 	0
scalar MyScenario.node[14].appl 	generatedBSMs 	11
scalar MyScenario.node[14].appl 	receivedBSMs 	33
scalar MyScenario.node[14].appl 	generatedWSAs 	0
scalar MyScenario.node[14].appl 	receivedWSAs 	0
scalar MyScenario.node[14].nic.phy80211p 	busyTime 	0.00032377358490566
scalar MyScenario.node[14].nic.mac1609_4 	ReceivedUnicastPackets 	0
scalar MyScenario.node[14].nic.mac1609_4 	ReceivedBroadcasts 	33
scalar MyScenario.node[14].nic.mac1609_4 	SentPackets 	11
scalar MyScenario.node[14].nic.mac1609_4 	SNIRLostPackets 	0
scalar MyScenario.node[14].nic.mac1609_4 	RXTXLostPackets 	0
scalar MyScenario.node[14].nic.mac1609_4 	TotalLostPackets 	0
scalar MyScenario.node[14].nic.mac1609_4 	DroppedPacketsInMac 	0
scalar MyScenario.node[14].nic.mac1609_4 	TooLittleTime 	0
scalar MyScenario.node[14].nic.mac1609_4 	TimesIntoBackoff 	11
scalar MyScenario.node[14].nic.mac1609_4 	SlotsBackoff 	21
scalar MyScenario.node[14].nic.mac1609_4 	NumInternalContention 	0
scalar MyScenario.node[14].nic.mac1609_4 	totalBusyTime 	0.004587
scalar MyScenario.node[14].veinsmobility 	startTime 	18000
scalar MyScenario.node[14].veinsmobility 	totalTime 	10.5
scalar MyScenario.node[14].veinsmobility 	stopTime 	18010.6
scalar MyScenario.node[14].veinsmobility 	minSpeed 	0.25148145830054
scalar MyScenario.node[14].veinsmobility 	maxSpeed 	15.058943194972
scalar MyScenario.node[14].veinsmobility 	totalDistance 	107.29221587668
scalar MyScenario.node[14].veinsmobility 	totalCO2Emission 	46.277339779249
scalar MyScenario.node[12].appl 	generatedWSMs 	0
scalar MyScenario.node[12].appl 	receivedWSMs 	0
scalar MyScenario.node[12].appl 	generatedBSMs 	12
scalar MyScenario.node[12].appl 	receivedBSMs 	49
scalar MyScenario.node[12].appl 	generatedWSAs 	0
scalar MyScenario.node[12].appl 	receivedWSAs 	0
scalar MyScenario.node[12].nic.phy80211p 	busyTime 	0.00040768
scalar MyScenario.node[12].nic.mac1609_4 	ReceivedUnicastPackets 	0
scalar MyScenario.node[12].nic.mac1609_4 	ReceivedBroadcasts 	49
scalar MyScenario.node[12].nic.mac1609_4 	SentPackets 	12
scalar MyScenario.node[12].nic.mac1609_4 	SNIRLostPackets 	0
scalar MyScenario.node[12].nic.mac1609_4 	RXTXLostPackets 	0
scalar MyScenario.node[12].nic.mac1609_4 	TotalLostPackets 	0
scalar MyScenario.node[12].nic.mac1609_4 	DroppedPacketsInMac 	0
scalar MyScenario.node[12].nic.mac1609_4 	TooLittleTime 	0
scalar MyScenario.node[12].nic.mac1609_4 	TimesIntoBackoff 	12
scalar MyScenario.node[12].nic.mac1609_4 	SlotsBackoff 	18
scalar MyScenario.node[12].nic.mac1609_4 	NumInternalContention 	0
scalar MyScenario.node[12].nic.mac1609_4 	totalBusyTime 	0.006356
scalar MyScenario.node[12].veinsmobility 	startTime 	18000
scalar MyScenario.node[12].veinsmobility 	totalTime 	12.4
scalar MyScenario.node[12].veinsmobility 	stopTime 	18012.5
scalar MyScenario.node[12].veinsmobility 	minSpeed 	4.6111853800716e-14
scalar MyScenario.node[12].veinsmobility 	maxSpeed 	12.873780858745
scalar MyScenario.node[12].veinsmobility 	totalDistance 	109.71350371456
scalar MyScenario.node[12].veinsmobility 	totalCO2Emission 	41.973093778908
scalar MyScenario.node[22].appl 	generatedWSMs 	0
scalar MyScenario.node[22].appl 	receivedWSMs 	0
scalar MyScenario.node[22].appl 	generatedBSMs 	14
scalar MyScenario.node[22].appl 	receivedBSMs 	58
scalar MyScenario.node[22].appl 	generatedWSAs 	0
scalar MyScenario.node[22].appl 	receivedWSAs 	0
scalar MyScenario.node[22].nic.phy80211p 	busyTime 	0.00041315068493151
scalar MyScenario.node[22].nic.mac1609_4 	ReceivedUnicastPackets 	0
scalar MyScenario.node[22].nic.mac1609_4 	ReceivedBroadcasts 	58
scalar MyScenario.node[22].nic.mac1609_4 	SentPackets 	14
scalar MyScenario.node[22].nic.mac1609_4 	SNIRLostPackets 	0
scalar MyScenario.node[22].nic.mac1609_4 	RXTXLostPackets 	0
scalar MyScenario.node[22].nic.mac1609_4 	TotalLostPackets 	0
scalar MyScenario.node[22].nic.mac1609_4 	DroppedPacketsInMac 	0
scalar MyScenario.node[22].nic.mac1609_4 	TooLittleTime 	0
scalar MyScenario.node[22].nic.mac1609_4 	TimesIntoBackoff 	14
scalar MyScenario.node[22].nic.mac1609_4 	SlotsBackoff 	20
scalar MyScenario.node[22].nic.mac1609_4 	NumInternalContention 	0
scalar MyScenario.node[22].nic.mac1609_4 	totalBusyTime 	0.007502
scalar MyScenario.node[22].veinsmobility 	startTime 	18000
scalar MyScenario.node[22].veinsmobility 	totalTime 	14.5
scalar MyScenario.node[22].veinsmobility 	stopTime 	18014.6
scalar MyScenario.node[22].veinsmobility 	minSpeed 	3.2845594278986
scalar MyScenario.node[22].veinsmobility 	maxSpeed 	17.858987796196
scalar MyScenario.node[22].veinsmobility 	totalDistance 	169.36861053843
scalar MyScenario.node[22].veinsmobility 	totalCO2Emission 	50.212699344876
scalar MyScenario.node[10].appl 	generatedWSMs 	0
scalar MyScenario.node[10].appl 	receivedWSMs 	0
scalar MyScenario.node[10].appl 	generatedBSMs 	17
scalar MyScenario.node[10].appl 	receivedBSMs 	2
scalar MyScenario.node[10].appl 	generatedWSAs 	0
scalar MyScenario.node[10].appl 	receivedWSAs 	0
scalar MyScenario.node[10].nic.phy80211p 	busyTime 	1.1954022988506e-05
scalar MyScenario.node[10].nic.mac1609_4 	ReceivedUnicastPackets 	0
scalar MyScenario.node[10].nic.mac1609_4 	ReceivedBroadcasts 	2
scalar MyScenario.node[10].nic.mac1609_4 	SentPackets 	17
scalar MyScenario.node[10].nic.mac1609_4 	SNIRLostPackets 	0
scalar MyScenario.node[10].nic.mac1609_4 	RXTXLostPackets 	0
scalar MyScenario.node[10].nic.mac1609_4 	TotalLostPackets 	0
scalar MyScenario.node[10].nic.mac1609_4 	DroppedPacketsInMac 	0
scalar MyScenario.node[10].nic.mac1609_4 	TooLittleTime 	0
scalar MyScenario.node[10].nic.mac1609_4 	TimesIntoBackoff 	17
scalar MyScenario.node[10].nic.mac1609_4 	SlotsBackoff 	23
scalar MyScenario.node[10].nic.mac1609_4 	NumInternalContention 	0
scalar MyScenario.node[10].nic.mac1609_4 	totalBusyTime 	0.001993
scalar MyScenario.node[10].veinsmobility 	startTime 	18000
scalar MyScenario.node[10].veinsmobility 	totalTime 	17.3
scalar MyScenario.node[10].veinsmobility 	stopTime 	18017.4
scalar MyScenario.node[10].veinsmobility 	minSpeed 	3.373593297518
scalar MyScenario.node[10].veinsmobility 	maxSpeed 	12.335621117372
scalar MyScenario.node[10].veinsmobility 	totalDistance 	164.19019358688
scalar MyScenario.node[10].veinsmobility 	totalCO2Emission 	62.480372091396
scalar MyScenario.node[20].appl 	generatedWSMs 	0
scalar MyScenario.node[20].appl 	receivedWSMs 	0
scalar MyScenario.node[20].appl 	generatedBSMs 	19
scalar MyScenario.node[20].appl 	receivedBSMs 	8
scalar MyScenario.node[20].appl 	generatedWSAs 	0
scalar MyScenario.node[20].appl 	receivedWSAs 	0
scalar MyScenario.node[20].nic.phy80211p 	busyTime 	4.3789473684211e-05
scalar MyScenario.node[20].nic.mac1609_4 	ReceivedUnicastPackets 	0
scalar MyScenario.node[20].nic.mac1609_4 	ReceivedBroadcasts 	8
scalar MyScenario.node[20].nic.mac1609_4 	SentPackets 	19
scalar MyScenario.node[20].nic.mac1609_4 	SNIRLostPackets 	0
scalar MyScenario.node[20].nic.mac1609_4 	RXTXLostPackets 	0
scalar MyScenario.node[20].nic.mac1609_4 	TotalLostPackets 	0
scalar MyScenario.node[20].nic.mac1609_4 	DroppedPacketsInMac 	0
scalar MyScenario.node[20].nic.mac1609_4 	TooLittleTime 	0
scalar MyScenario.node[20].nic.mac1609_4 	TimesIntoBackoff 	19
scalar MyScenario.node[20].nic.mac1609_4 	SlotsBackoff 	33
scalar MyScenario.node[20].nic.mac1609_4 	NumInternalContention 	0
scalar MyScenario.node[20].nic.mac1609_4 	totalBusyTime 	0.002827
scalar MyScenario.node[20].veinsmobility 	startTime 	18000
scalar MyScenario.node[20].veinsmobility 	totalTime 	18.9
scalar MyScenario.node[20].veinsmobility 	stopTime 	18019
scalar MyScenario.node[20].veinsmobility 	minSpeed 	0.27366415761881
scalar MyScenario.node[20].veinsmobility 	maxSpeed 	13.16041990781
scalar MyScenario.node[20].veinsmobility 	totalDistance 	175.11068179921
scalar MyScenario.node[20].veinsmobility 	totalCO2Emission 	71.582372648772
scalar MyScenario.node[26].appl 	generatedWSMs 	0
scalar MyScenario.node[26].appl 	receivedWSMs 	0
scalar MyScenario.node[26].appl 	generatedBSMs 	22
scalar MyScenario.node[26].appl 	receivedBSMs 	152
scalar MyScenario.node[26].appl 	generatedWSAs 	0
scalar MyScenario.node[26].appl 	receivedWSAs 	0
scalar MyScenario.node[26].nic.phy80211p 	busyTime 	0.00072847926267281
scalar MyScenario.node[26].nic.mac1609_4 	ReceivedUnicastPackets 	0
scalar MyScenario.node[26].nic.mac1609_4 	ReceivedBroadcasts 	152
scalar MyScenario.node[26].nic.mac1609_4 	SentPackets 	22
scalar MyScenario.node[26].nic.mac1609_4 	SNIRLostPackets 	0
scalar MyScenario.node[26].nic.mac1609_4 	RXTXLostPackets 	0
scalar MyScenario.node[26].nic.mac1609_4 	TotalLostPackets 	0
scalar MyScenario.node[26].nic.mac1609_4 	DroppedPacketsInMac 	0
scalar MyScenario.node[26].nic.mac1609_4 	TooLittleTime 	0
scalar MyScenario.node[26].nic.mac1609_4 	TimesIntoBackoff 	22
scalar MyScenario.node[26].nic.mac1609_4 	SlotsBackoff 	31
scalar MyScenario.node[26].nic.mac1609_4 	NumInternalContention 	0
scalar MyScenario.node[26].nic.mac1609_4 	totalBusyTime 	0.018118
scalar MyScenario.node[26].veinsmobility 	startTime 	18000
scalar MyScenario.node[26].veinsmobility 	totalTime 	21.6
scalar MyScenario.node[26].veinsmobility 	stopTime 	18021.7
scalar MyScenario.node[26].veinsmobility 	minSpeed 	0.22922689141799
scalar MyScenario.node[26].veinsmobility 	maxSpeed 	13.364099892277
scalar MyScenario.node[26].veinsmobility 	totalDistance 	239.06831034111
scalar MyScenario.node[26].veinsmobility 	totalCO2Emission 	63.56508607303
scalar MyScenario.node[1].appl 	generatedWSMs 	0
scalar MyScenario.node[1].appl 	receivedWSMs 	0
scalar MyScenario.node[1].appl 	generatedBSMs 	24
scalar MyScenario.node[1].appl 	receivedBSMs 	270
scalar MyScenario.node[1].appl 	generatedWSAs 	0
scalar MyScenario.node[1].appl 	receivedWSAs 	0
scalar MyScenario.node[1].nic.phy80211p 	busyTime 	0.0011798319327731
scalar MyScenario.node[1].nic.mac1609_4 	ReceivedUnicastPackets 	0
scalar MyScenario.node[1].nic.mac1609_4 	ReceivedBroadcasts 	270
scalar MyScenario.node[1].nic.mac1609_4 	SentPackets 	24
scalar MyScenario.node[1].nic.mac1609_4 	SNIRLostPackets 	0
scalar MyScenario.node[1].nic.mac1609_4 	RXTXLostPackets 	0
scalar MyScenario.node[1].nic.mac1609_4 	TotalLostPackets 	0
scalar MyScenario.node[1].nic.mac1609_4 	DroppedPacketsInMac 	0
scalar MyScenario.node[1].nic.mac1609_4 	TooLittleTime 	0
scalar MyScenario.node[1].nic.mac1609_4 	TimesIntoBackoff 	24
scalar MyScenario.node[1].nic.mac1609_4 	SlotsBackoff 	40
scalar MyScenario.node[1].nic.mac1609_4 	NumInternalContention 	0
scalar MyScenario.node[1].nic.mac1609_4 	totalBusyTime 	0.0306
scalar MyScenario.node[1].veinsmobility 	startTime 	18000
scalar MyScenario.node[1].veinsmobility 	totalTime 	23.7
scalar MyScenario.node[1].veinsmobility 	stopTime 	18023.8
scalar MyScenario.node[1].veinsmobility 	minSpeed 	31.951894613147
scalar MyScenario.node[1].veinsmobility 	maxSpeed 	32.10095330527
scalar MyScenario.node[1].veinsmobility 	totalDistance 	759.07124030042
scalar MyScenario.node[1].veinsmobility 	totalCO2Emission 	139.723564496
scalar MyScenario.node[13].appl 	generatedWSMs 	0
scalar MyScenario.node[13].appl 	receivedWSMs 	0
scalar MyScenario.node[13].appl 	generatedBSMs 	24
scalar MyScenario.node[13].appl 	receivedBSMs 	212
scalar MyScenario.node[13].appl 	generatedWSAs 	0
scalar MyScenario.node[13].appl 	receivedWSAs 	0
scalar MyScenario.node[13].nic.phy80211p 	busyTime 	0.00091107438016529
scalar MyScenario.node[13].nic.mac1609_4 	ReceivedUnicastPackets 	0
scalar MyScenario.node[13].nic.mac1609_4 	ReceivedBroadcasts 	212
scalar MyScenario.node[13].nic.mac1609_4 	SentPackets 	24
scalar MyScenario.node[13].nic.mac1609_4 	SNIRLostPackets 	0
scalar MyScenario.node[13].nic.mac1609_4 	RXTXLostPackets 	0
scalar MyScenario.node[13].nic.mac1609_4 	TotalLostPackets 	0
scalar MyScenario.node[13].nic.mac1609_4 	DroppedPacketsInMac 	0
scalar MyScenario.node[13].nic.mac1609_4 	TooLittleTime 	0
scalar MyScenario.node[13].nic.mac1609_4 	TimesIntoBackoff 	24
scalar MyScenario.node[13].nic.mac1609_4 	SlotsBackoff 	32
scalar MyScenario.node[13].nic.mac1609_4 	NumInternalContention 	0
scalar MyScenario.node[13].nic.mac1609_4 	totalBusyTime 	0.024568
scalar MyScenario.node[13].veinsmobility 	startTime 	18000
scalar MyScenario.node[13].veinsmobility 	totalTime 	24.1
scalar MyScenario.node[13].veinsmobility 	stopTime 	18024.2
scalar MyScenario.node[13].veinsmobility 	minSpeed 	37.281941843058
scalar MyScenario.node[13].veinsmobility 	maxSpeed 	37.411077457274
scalar MyScenario.node[13].veinsmobility 	totalDistance 	899.17452259144
scalar MyScenario.node[13].veinsmobility 	totalCO2Emission 	185.49011998278
scalar MyScenario.node[40].appl 	generatedWSMs 	0
scalar MyScenario.node[40].appl 	receivedWSMs 	0
scalar MyScenario.node[40].appl 	generatedBSMs 	17
scalar MyScenario.node[40].appl 	receivedBSMs 	74
scalar MyScenario.node[40].appl 	generatedWSAs 	0
scalar MyScenario.node[40].appl 	receivedWSAs 	0
scalar MyScenario.node[40].nic.phy80211p 	busyTime 	0.00044229885057466
scalar MyScenario.node[40].nic.mac1609_4 	ReceivedUnicastPackets 	0
scalar MyScenario.node[40].nic.mac1609_4 	ReceivedBroadcasts 	74
scalar MyScenario.node[40].nic.mac1609_4 	SentPackets 	17
scalar MyScenario.node[40].nic.mac1609_4 	SNIRLostPackets 	0
scalar MyScenario.node[40].nic.mac1609_4 	RXTXLostPackets 	0
scalar MyScenario.node[40].nic.mac1609_4 	TotalLostPackets 	0
scalar MyScenario.node[40].nic.mac1609_4 	DroppedPacketsInMac 	0
scalar MyScenario.node[40].nic.mac1609_4 	TooLittleTime 	0
scalar MyScenario.node[40].nic.mac1609_4 	TimesIntoBackoff 	17
scalar MyScenario.node[40].nic.mac1609_4 	SlotsBackoff 	29
scalar MyScenario.node[40].nic.mac1609_4 	NumInternalContention 	0
scalar MyScenario.node[40].nic.mac1609_4 	totalBusyTime 	0.009481
scalar MyScenario.node[40].veinsmobility 	startTime 	18007.6
scalar MyScenario.node[40].veinsmobility 	totalTime 	17.3
scalar MyScenario.node[40].veinsmobility 	stopTime 	18025
scalar MyScenario.node[40].veinsmobility 	minSpeed 	4.4923247762789
scalar MyScenario.node[40].veinsmobility 	maxSpeed 	12.059492169227
scalar MyScenario.node[40].veinsmobility 	totalDistance 	193.33303626859
scalar MyScenario.node[40].veinsmobility 	totalCO2Emission 	38.941220791882
scalar MyScenario.node[0].appl 	generatedWSMs 	0
scalar MyScenario.node[0].appl 	receivedWSMs 	0
scalar MyScenario.node[0].appl 	generatedBSMs 	25
scalar MyScenario.node[0].appl 	receivedBSMs 	292
scalar MyScenario.node[0].appl 	generatedWSAs 	0
scalar MyScenario.node[0].appl 	receivedWSAs 	0
scalar MyScenario.node[0].nic.phy80211p 	busyTime 	0.0012003162055336
scalar MyScenario.node[0].nic.mac1609_4 	ReceivedUnicastPackets 	0
scalar MyScenario.node[0].nic.mac1609_4 	ReceivedBroadcasts 	292
scalar MyScenario.node[0].nic.mac1609_4 	SentPackets 	25
scalar MyScenario.node[0].nic.mac1609_4 	SNIRLostPackets 	0
scalar MyScenario.node[0].nic.mac1609_4 	RXTXLostPackets 	0
scalar MyScenario.node[0].nic.mac1609_4 	TotalLostPackets 	0
scalar MyScenario.node[0].nic.mac1609_4 	DroppedPacketsInMac 	0
scalar MyScenario.node[0].nic.mac1609_4 	TooLittleTime 	0
scalar MyScenario.node[0].nic.mac1609_4 	TimesIntoBackoff 	25
scalar MyScenario.node[0].nic.mac1609_4 	SlotsBackoff 	41
scalar MyScenario.node[0].nic.mac1609_4 	NumInternalContention 	0
scalar MyScenario.node[0].nic.mac1609_4 	totalBusyTime 	0.032993
scalar MyScenario.node[0].veinsmobility 	startTime 	18000
scalar MyScenario.node[0].veinsmobility 	totalTime 	25.2
scalar MyScenario.node[0].veinsmobility 	stopTime 	18025.3
scalar MyScenario.node[0].veinsmobility 	minSpeed 	29.880131369848
scalar MyScenario.node[0].veinsmobility 	maxSpeed 	29.998555475101
scalar MyScenario.node[0].veinsmobility 	totalDistance 	753.59467763585
scalar MyScenario.node[0].veinsmobility 	totalCO2Emission 	128.36511382135
scalar MyScenario.node[2].appl 	generatedWSMs 	0
scalar MyScenario.node[2].appl 	receivedWSMs 	0
scalar MyScenario.node[2].appl 	generatedBSMs 	25
scalar MyScenario.node[2].appl 	receivedBSMs 	244
scalar MyScenario.node[2].appl 	generatedWSAs 	0
scalar MyScenario.node[2].appl 	receivedWSAs 	0
scalar MyScenario.node[2].nic.phy80211p 	busyTime 	0.00098739299610895
scalar MyScenario.node[2].nic.mac1609_4 	ReceivedUnicastPackets 	0
scalar MyScenario.node[2].nic.mac1609_4 	ReceivedBroadcasts 	244
scalar MyScenario.node[2].nic.mac1609_4 	SentPackets 	25
scalar MyScenario.node[2].nic.mac1609_4 	SNIRLostPackets 	0
scalar MyScenario.node[2].nic.mac1609_4 	RXTXLostPackets 	0
scalar MyScenario.node[2].nic.mac1609_4 	TotalLostPackets 	0
scalar MyScenario.node[2].nic.mac1609_4 	DroppedPacketsInMac 	0
scalar MyScenario.node[2].nic.mac1609_4 	TooLittleTime 	0
scalar MyScenario.node[2].nic.mac1609_4 	TimesIntoBackoff 	25
scalar MyScenario.node[2].nic.mac1609_4 	SlotsBackoff 	40
scalar MyScenario.node[2].nic.mac1609_4 	NumInternalContention 	0
scalar MyScenario.node[2].nic.mac1609_4 	totalBusyTime 	0.028001
scalar MyScenario.node[2].veinsmobility 	startTime 	18000
scalar MyScenario.node[2].veinsmobility 	totalTime 	25.6
scalar MyScenario.node[2].veinsmobility 	stopTime 	18025.7
scalar MyScenario.node[2].veinsmobility 	minSpeed 	29.885344019162
scalar MyScenario.node[2].veinsmobility 	maxSpeed 	29.999758939823
scalar MyScenario.node[2].veinsmobility 	totalDistance 	767.37309521005
scalar MyScenario.node[2].veinsmobility 	totalCO2Emission 	129.4159677861
scalar MyScenario.node[18].appl 	generatedWSMs 	0
scalar MyScenario.node[18].appl 	receivedWSMs 	0
scalar MyScenario.node[18].appl 	generatedBSMs 	27
scalar MyScenario.node[18].appl 	receivedBSMs 	336
scalar MyScenario.node[18].appl 	generatedWSAs 	0
scalar MyScenario.node[18].appl 	receivedWSAs 	0
scalar MyScenario.node[18].nic.phy80211p 	busyTime 	0.0012569784172662
scalar MyScenario.node[18].nic.mac1609_4 	ReceivedUnicastPackets 	0
scalar MyScenario.node[18].nic.mac1609_4 	ReceivedBroadcasts 	336
scalar MyScenario.node[18].nic.mac1609_4 	SentPackets 	27
scalar MyScenario.node[18].nic.mac1609_4 	SNIRLostPackets 	0
scalar MyScenario.node[18].nic.mac1609_4 	RXTXLostPackets 	0
scalar MyScenario.node[18].nic.mac1609_4 	TotalLostPackets 	0
scalar MyScenario.node[18].nic.mac1609_4 	DroppedPacketsInMac 	0
scalar MyScenario.node[18].nic.mac1609_4 	TooLittleTime 	0
scalar MyScenario.node[18].nic.mac1609_4 	TimesIntoBackoff 	27
scalar MyScenario.node[18].nic.mac1609_4 	SlotsBackoff 	39
scalar MyScenario.node[18].nic.mac1609_4 	NumInternalContention 	0
scalar MyScenario.node[18].nic.mac1609_4 	totalBusyTime 	0.037779
scalar MyScenario.node[18].veinsmobility 	startTime 	18000
scalar MyScenario.node[18].veinsmobility 	totalTime 	27.7
scalar MyScenario.node[18].veinsmobility 	stopTime 	18027.8
scalar MyScenario.node[18].veinsmobility 	minSpeed 	29.885018565988
scalar MyScenario.node[18].veinsmobility 	maxSpeed 	29.999293823802
scalar MyScenario.node[18].veinsmobility 	totalDistance 	828.31999881497
scalar MyScenario.node[18].veinsmobility 	totalCO2Emission 	140.17943292601
scalar MyScenario.node[28].appl 	generatedWSMs 	0
scalar MyScenario.node[28].appl 	receivedWSMs 	0
scalar MyScenario.node[28].appl 	generatedBSMs 	28
scalar MyScenario.node[28].appl 	receivedBSMs 	96
scalar MyScenario.node[28].appl 	generatedWSAs 	0
scalar MyScenario.node[28].appl 	receivedWSAs 	0
scalar MyScenario.node[28].nic.phy80211p 	busyTime 	0.00035657142857143
scalar MyScenario.node[28].nic.mac1609_4 	ReceivedUnicastPackets 	0
scalar MyScenario.node[28].nic.mac1609_4 	ReceivedBroadcasts 	96
scalar MyScenario.node[28].nic.mac1609_4 	SentPackets 	28
scalar MyScenario.node[28].nic.mac1609_4 	SNIRLostPackets 	0
scalar MyScenario.node[28].nic.mac1609_4 	RXTXLostPackets 	0
scalar MyScenario.node[28].nic.mac1609_4 	TotalLostPackets 	0
scalar MyScenario.node[28].nic.mac1609_4 	DroppedPacketsInMac 	0
scalar MyScenario.node[28].nic.mac1609_4 	TooLittleTime 	0
scalar MyScenario.node[28].nic.mac1609_4 	TimesIntoBackoff 	28
scalar MyScenario.node[28].nic.mac1609_4 	SlotsBackoff 	43
scalar MyScenario.node[28].nic.mac1609_4 	NumInternalContention 	0
scalar MyScenario.node[28].nic.mac1609_4 	totalBusyTime 	0.012924
scalar MyScenario.node[28].veinsmobility 	startTime 	18000
scalar MyScenario.node[28].veinsmobility 	totalTime 	27.9
scalar MyScenario.node[28].veinsmobility 	stopTime 	18028
scalar MyScenario.node[28].veinsmobility 	minSpeed 	0
scalar MyScenario.node[28].veinsmobility 	maxSpeed 	16.459332491275
scalar MyScenario.node[28].veinsmobility 	totalDistance 	261.42112714176
scalar MyScenario.node[28].veinsmobility 	totalCO2Emission 	69.620381714796
scalar MyScenario.node[31].appl 	generatedWSMs 	0
scalar MyScenario.node[31].appl 	receivedWSMs 	0
scalar MyScenario.node[31].appl 	generatedBSMs 	27
scalar MyScenario.node[31].appl 	receivedBSMs 	347
scalar MyScenario.node[31].appl 	generatedWSAs 	0
scalar MyScenario.node[31].appl 	receivedWSAs 	0
scalar MyScenario.node[31].nic.phy80211p 	busyTime 	0.0013267647058823
scalar MyScenario.node[31].nic.mac1609_4 	ReceivedUnicastPackets 	0
scalar MyScenario.node[31].nic.mac1609_4 	ReceivedBroadcasts 	347
scalar MyScenario.node[31].nic.mac1609_4 	SentPackets 	27
scalar MyScenario.node[31].nic.mac1609_4 	SNIRLostPackets 	0
scalar MyScenario.node[31].nic.mac1609_4 	RXTXLostPackets 	0
scalar MyScenario.node[31].nic.mac1609_4 	TotalLostPackets 	0
scalar MyScenario.node[31].nic.mac1609_4 	DroppedPacketsInMac 	0
scalar MyScenario.node[31].nic.mac1609_4 	TooLittleTime 	0
scalar MyScenario.node[31].nic.mac1609_4 	TimesIntoBackoff 	27
scalar MyScenario.node[31].nic.mac1609_4 	SlotsBackoff 	46
scalar MyScenario.node[31].nic.mac1609_4 	NumInternalContention 	0
scalar MyScenario.node[31].nic.mac1609_4 	totalBusyTime 	0.038923
scalar MyScenario.node[31].veinsmobility 	startTime 	18002.1
scalar MyScenario.node[31].veinsmobility 	totalTime 	27.1
scalar MyScenario.node[31].veinsmobility 	stopTime 	18029.3
scalar MyScenario.node[31].veinsmobility 	minSpeed 	30.637952900415
scalar MyScenario.node[31].veinsmobility 	maxSpeed 	34.691915079963
scalar MyScenario.node[31].veinsmobility 	totalDistance 	899.84993849439
scalar MyScenario.node[31].veinsmobility 	totalCO2Emission 	133.76134420747
scalar MyScenario.node[38].appl 	generatedWSMs 	0
scalar MyScenario.node[38].appl 	receivedWSMs 	0
scalar MyScenario.node[38].appl 	generatedBSMs 	23
scalar MyScenario.node[38].appl 	receivedBSMs 	90
scalar MyScenario.node[38].appl 	generatedWSAs 	0
scalar MyScenario.node[38].appl 	receivedWSAs 	0
scalar MyScenario.node[38].nic.phy80211p 	busyTime 	0.00041233480176211
scalar MyScenario.node[38].nic.mac1609_4 	ReceivedUnicastPackets 	0
scalar MyScenario.node[38].nic.mac1609_4 	ReceivedBroadcasts 	90
scalar MyScenario.node[38].nic.mac1609_4 	SentPackets 	23
scalar MyScenario.node[38].nic.mac1609_4 	SNIRLostPackets 	0
scalar MyScenario.node[38].nic.mac1609_4 	RXTXLostPackets 	0
scalar MyScenario.node[38].nic.mac1609_4 	TotalLostPackets 	0
scalar MyScenario.node[38].nic.mac1609_4 	DroppedPacketsInMac 	0
scalar MyScenario.node[38].nic.mac1609_4 	TooLittleTime 	0
scalar MyScenario.node[38].nic.mac1609_4 	TimesIntoBackoff 	23
scalar MyScenario.node[38].nic.mac1609_4 	SlotsBackoff 	37
scalar MyScenario.node[38].nic.mac1609_4 	NumInternalContention 	0
scalar MyScenario.node[38].nic.mac1609_4 	totalBusyTime 	0.011775
scalar MyScenario.node[38].veinsmobility 	startTime 	18006.8
scalar MyScenario.node[38].veinsmobility 	totalTime 	22.6
scalar MyScenario.node[38].veinsmobility 	stopTime 	18029.5
scalar MyScenario.node[38].veinsmobility 	minSpeed 	13.654397831052
scalar MyScenario.node[38].veinsmobility 	maxSpeed 	16.537842978019
scalar MyScenario.node[38].veinsmobility 	totalDistance 	347.51325499312
scalar MyScenario.node[38].veinsmobility 	totalCO2Emission 	66.457089987919
scalar MyScenario.node[35].appl 	generatedWSMs 	0
scalar MyScenario.node[35].appl 	receivedWSMs 	0
scalar MyScenario.node[35].appl 	generatedBSMs 	26
scalar MyScenario.node[35].appl 	receivedBSMs 	354
scalar MyScenario.node[35].appl 	generatedWSAs 	0
scalar MyScenario.node[35].appl 	receivedWSAs 	0
scalar MyScenario.node[35].nic.phy80211p 	busyTime 	0.0014105747126437
scalar MyScenario.node[35].nic.mac1609_4 	ReceivedUnicastPackets 	0
scalar MyScenario.node[35].nic.mac1609_4 	ReceivedBroadcasts 	354
scalar MyScenario.node[35].nic.mac1609_4 	SentPackets 	26
scalar MyScenario.node[35].nic.mac1609_4 	SNIRLostPackets 	0
scalar MyScenario.node[35].nic.mac1609_4 	RXTXLostPackets 	0
scalar MyScenario.node[35].nic.mac1609_4 	TotalLostPackets 	0
scalar MyScenario.node[35].nic.mac1609_4 	DroppedPacketsInMac 	0
scalar MyScenario.node[35].nic.mac1609_4 	TooLittleTime 	0
scalar MyScenario.node[35].nic.mac1609_4 	TimesIntoBackoff 	26
scalar MyScenario.node[35].nic.mac1609_4 	SlotsBackoff 	32
scalar MyScenario.node[35].nic.mac1609_4 	NumInternalContention 	0
scalar MyScenario.node[35].nic.mac1609_4 	totalBusyTime 	0.039546
scalar MyScenario.node[35].veinsmobility 	startTime 	18004.5
scalar MyScenario.node[35].veinsmobility 	totalTime 	26
scalar MyScenario.node[35].veinsmobility 	stopTime 	18030.6
scalar MyScenario.node[35].veinsmobility 	minSpeed 	30.997561532717
scalar MyScenario.node[35].veinsmobility 	maxSpeed 	37.598224210262
scalar MyScenario.node[35].veinsmobility 	totalDistance 	901.33358397873
scalar MyScenario.node[35].veinsmobility 	totalCO2Emission 	131.20786322773
scalar MyScenario.node[32].appl 	generatedWSMs 	0
scalar MyScenario.node[32].appl 	receivedWSMs 	0
scalar MyScenario.node[32].appl 	generatedBSMs 	31
scalar MyScenario.node[32].appl 	receivedBSMs 	385
scalar MyScenario.node[32].appl 	generatedWSAs 	0
scalar MyScenario.node[32].appl 	receivedWSAs 	0
scalar MyScenario.node[32].nic.phy80211p 	busyTime 	0.0013214521452145
scalar MyScenario.node[32].nic.mac1609_4 	ReceivedUnicastPackets 	0
scalar MyScenario.node[32].nic.mac1609_4 	ReceivedBroadcasts 	385
scalar MyScenario.node[32].nic.mac1609_4 	SentPackets 	31
scalar MyScenario.node[32].nic.mac1609_4 	SNIRLostPackets 	0
scalar MyScenario.node[32].nic.mac1609_4 	RXTXLostPackets 	0
scalar MyScenario.node[32].nic.mac1609_4 	TotalLostPackets 	0
scalar MyScenario.node[32].nic.mac1609_4 	DroppedPacketsInMac 	0
scalar MyScenario.node[32].nic.mac1609_4 	TooLittleTime 	0
scalar MyScenario.node[32].nic.mac1609_4 	TimesIntoBackoff 	31
scalar MyScenario.node[32].nic.mac1609_4 	SlotsBackoff 	38
scalar MyScenario.node[32].nic.mac1609_4 	NumInternalContention 	0
scalar MyScenario.node[32].nic.mac1609_4 	totalBusyTime 	0.043295
scalar MyScenario.node[32].veinsmobility 	startTime 	18002.2
scalar MyScenario.node[32].veinsmobility 	totalTime 	30.2
scalar MyScenario.node[32].veinsmobility 	stopTime 	18032.5
scalar MyScenario.node[32].veinsmobility 	minSpeed 	29.886474921467
scalar MyScenario.node[32].veinsmobility 	maxSpeed 	29.999988403574
scalar MyScenario.node[32].veinsmobility 	totalDistance 	903.27030407293
scalar MyScenario.node[32].veinsmobility 	totalCO2Emission 	153.95232374003
scalar MyScenario.node[34].appl 	generatedWSMs 	0
scalar MyScenario.node[34].appl 	receivedWSMs 	0
scalar MyScenario.node[34].appl 	generatedBSMs 	30
scalar MyScenario.node[34].appl 	receivedBSMs 	383
scalar MyScenario.node[34].appl 	generatedWSAs 	0
scalar MyScenario.node[34].appl 	receivedWSAs 	0
scalar MyScenario.node[34].nic.phy80211p 	busyTime 	0.0013277333333333
scalar MyScenario.node[34].nic.mac1609_4 	ReceivedUnicastPackets 	0
scalar MyScenario.node[34].nic.mac1609_4 	ReceivedBroadcasts 	383
scalar MyScenario.node[34].nic.mac1609_4 	SentPackets 	30
scalar MyScenario.node[34].nic.mac1609_4 	SNIRLostPackets 	0
scalar MyScenario.node[34].nic.mac1609_4 	RXTXLostPackets 	0
scalar MyScenario.node[34].nic.mac1609_4 	TotalLostPackets 	0
scalar MyScenario.node[34].nic.mac1609_4 	DroppedPacketsInMac 	0
scalar MyScenario.node[34].nic.mac1609_4 	TooLittleTime 	0
scalar MyScenario.node[34].nic.mac1609_4 	TimesIntoBackoff 	30
scalar MyScenario.node[34].nic.mac1609_4 	SlotsBackoff 	36
scalar MyScenario.node[34].nic.mac1609_4 	NumInternalContention 	0
scalar MyScenario.node[34].nic.mac1609_4 	totalBusyTime 	0.042982
scalar MyScenario.node[34].veinsmobility 	startTime 	18003.8
scalar MyScenario.node[34].veinsmobility 	totalTime 	29.9
scalar MyScenario.node[34].veinsmobility 	stopTime 	18033.8
scalar MyScenario.node[34].veinsmobility 	minSpeed 	29.90286036081
scalar MyScenario.node[34].veinsmobility 	maxSpeed 	30.851261027514
scalar MyScenario.node[34].veinsmobility 	totalDistance 	901.05799853762
scalar MyScenario.node[34].veinsmobility 	totalCO2Emission 	159.66362055547
scalar MyScenario.node[36].appl 	generatedWSMs 	0
scalar MyScenario.node[36].appl 	receivedWSMs 	0
scalar MyScenario.node[36].appl 	generatedBSMs 	30
scalar MyScenario.node[36].appl 	receivedBSMs 	388
scalar MyScenario.node[36].appl 	generatedWSAs 	0
scalar MyScenario.node[36].appl 	receivedWSAs 	0
scalar MyScenario.node[36].nic.phy80211p 	busyTime 	0.0013485333333333
scalar MyScenario.node[36].nic.mac1609_4 	ReceivedUnicastPackets 	0
scalar MyScenario.node[36].nic.mac1609_4 	ReceivedBroadcasts 	388
scalar MyScenario.node[36].nic.mac1609_4 	SentPackets 	30
scalar MyScenario.node[36].nic.mac1609_4 	SNIRLostPackets 	1
scalar MyScenario.node[36].nic.mac1609_4 	RXTXLostPackets 	0
scalar MyScenario.node[36].nic.mac1609_4 	TotalLostPackets 	1
scalar MyScenario.node[36].nic.mac1609_4 	DroppedPacketsInMac 	0
scalar MyScenario.node[36].nic.mac1609_4 	TooLittleTime 	0
scalar MyScenario.node[36].nic.mac1609_4 	TimesIntoBackoff 	30
scalar MyScenario.node[36].nic.mac1609_4 	SlotsBackoff 	53
scalar MyScenario.node[36].nic.mac1609_4 	NumInternalContention 	0
scalar MyScenario.node[36].nic.mac1609_4 	totalBusyTime 	0.043606
scalar MyScenario.node[36].veinsmobility 	startTime 	18005
scalar MyScenario.node[36].veinsmobility 	totalTime 	29.9
scalar MyScenario.node[36].veinsmobility 	stopTime 	18035
scalar MyScenario.node[36].veinsmobility 	minSpeed 	29.838447896547
scalar MyScenario.node[36].veinsmobility 	maxSpeed 	30.785915834683
scalar MyScenario.node[36].veinsmobility 	totalDistance 	901.10368967493
scalar MyScenario.node[36].veinsmobility 	totalCO2Emission 	173.76614526816
scalar MyScenario.node[33].appl 	generatedWSMs 	0
scalar MyScenario.node[33].appl 	receivedWSMs 	0
scalar MyScenario.node[33].appl 	generatedBSMs 	32
scalar MyScenario.node[33].appl 	receivedBSMs 	303
scalar MyScenario.node[33].appl 	generatedWSAs 	0
scalar MyScenario.node[33].appl 	receivedWSAs 	0
scalar MyScenario.node[33].nic.phy80211p 	busyTime 	0.0009974842767295
scalar MyScenario.node[33].nic.mac1609_4 	ReceivedUnicastPackets 	0
scalar MyScenario.node[33].nic.mac1609_4 	ReceivedBroadcasts 	303
scalar MyScenario.node[33].nic.mac1609_4 	SentPackets 	32
scalar MyScenario.node[33].nic.mac1609_4 	SNIRLostPackets 	2
scalar MyScenario.node[33].nic.mac1609_4 	RXTXLostPackets 	0
scalar MyScenario.node[33].nic.mac1609_4 	TotalLostPackets 	2
scalar MyScenario.node[33].nic.mac1609_4 	DroppedPacketsInMac 	0
scalar MyScenario.node[33].nic.mac1609_4 	TooLittleTime 	0
scalar MyScenario.node[33].nic.mac1609_4 	TimesIntoBackoff 	32
scalar MyScenario.node[33].nic.mac1609_4 	SlotsBackoff 	50
scalar MyScenario.node[33].nic.mac1609_4 	NumInternalContention 	0
scalar MyScenario.node[33].nic.mac1609_4 	totalBusyTime 	0.03508
scalar MyScenario.node[33].veinsmobility 	startTime 	18003.6
scalar MyScenario.node[33].veinsmobility 	totalTime 	31.7
scalar MyScenario.node[33].veinsmobility 	stopTime 	18035.4
scalar MyScenario.node[33].veinsmobility 	minSpeed 	28.385437254087
scalar MyScenario.node[33].veinsmobility 	maxSpeed 	28.514220930018
scalar MyScenario.node[33].veinsmobility 	totalDistance 	901.822392096
scalar MyScenario.node[33].veinsmobility 	totalCO2Emission 	150.54086764386
scalar MyScenario.node[46].appl 	generatedWSMs 	0
scalar MyScenario.node[46].appl 	receivedWSMs 	0
scalar MyScenario.node[46].appl 	generatedBSMs 	27
scalar MyScenario.node[46].appl 	receivedBSMs 	328
scalar MyScenario.node[46].appl 	generatedWSAs 	0
scalar MyScenario.node[46].appl 	receivedWSAs 	0
scalar MyScenario.node[46].nic.phy80211p 	busyTime 	0.0013059541984732
scalar MyScenario.node[46].nic.mac1609_4 	ReceivedUnicastPackets 	0
scalar MyScenario.node[46].nic.mac1609_4 	ReceivedBroadcasts 	328
scalar MyScenario.node[46].nic.mac1609_4 	SentPackets 	27
scalar MyScenario.node[46].nic.mac1609_4 	SNIRLostPackets 	1
scalar MyScenario.node[46].nic.mac1609_4 	RXTXLostPackets 	0
scalar MyScenario.node[46].nic.mac1609_4 	TotalLostPackets 	1
scalar MyScenario.node[46].nic.mac1609_4 	DroppedPacketsInMac 	0
scalar MyScenario.node[46].nic.mac1609_4 	TooLittleTime 	0
scalar MyScenario.node[46].nic.mac1609_4 	TimesIntoBackoff 	27
scalar MyScenario.node[46].nic.mac1609_4 	SlotsBackoff 	40
scalar MyScenario.node[46].nic.mac1609_4 	NumInternalContention 	0
scalar MyScenario.node[46].nic.mac1609_4 	totalBusyTime 	0.037051
scalar MyScenario.node[46].veinsmobility 	startTime 	18011.1
scalar MyScenario.node[46].veinsmobility 	totalTime 	26.1
scalar MyScenario.node[46].veinsmobility 	stopTime 	18037.3
scalar MyScenario.node[46].veinsmobility 	minSpeed 	34.26722011439
scalar MyScenario.node[46].veinsmobility 	maxSpeed 	34.52636214497
scalar MyScenario.node[46].veinsmobility 	totalDistance 	899.24896864016
scalar MyScenario.node[46].veinsmobility 	totalCO2Emission 	171.74294058029
scalar MyScenario.node[41].appl 	generatedWSMs 	0
scalar MyScenario.node[41].appl 	receivedWSMs 	0
scalar MyScenario.node[41].appl 	generatedBSMs 	30
scalar MyScenario.node[41].appl 	receivedBSMs 	362
scalar MyScenario.node[41].appl 	generatedWSAs 	0
scalar MyScenario.node[41].appl 	receivedWSAs 	0
scalar MyScenario.node[41].nic.phy80211p 	busyTime 	0.001284081632653
scalar MyScenario.node[41].nic.mac1609_4 	ReceivedUnicastPackets 	0
scalar MyScenario.node[41].nic.mac1609_4 	ReceivedBroadcasts 	362
scalar MyScenario.node[41].nic.mac1609_4 	SentPackets 	30
scalar MyScenario.node[41].nic.mac1609_4 	SNIRLostPackets 	1
scalar MyScenario.node[41].nic.mac1609_4 	RXTXLostPackets 	0
scalar MyScenario.node[41].nic.mac1609_4 	TotalLostPackets 	1
scalar MyScenario.node[41].nic.mac1609_4 	DroppedPacketsInMac 	0
scalar MyScenario.node[41].nic.mac1609_4 	TooLittleTime 	0
scalar MyScenario.node[41].nic.mac1609_4 	TimesIntoBackoff 	30
scalar MyScenario.node[41].nic.mac1609_4 	SlotsBackoff 	51
scalar MyScenario.node[41].nic.mac1609_4 	NumInternalContention 	0
scalar MyScenario.node[41].nic.mac1609_4 	totalBusyTime 	0.040902
scalar MyScenario.node[41].veinsmobility 	startTime 	18008.1
scalar MyScenario.node[41].veinsmobility 	totalTime 	29.3
scalar MyScenario.node[41].veinsmobility 	stopTime 	18037.5
scalar MyScenario.node[41].veinsmobility 	minSpeed 	30.708385746279
scalar MyScenario.node[41].veinsmobility 	maxSpeed 	30.839236953812
scalar MyScenario.node[41].veinsmobility 	totalDistance 	900.50546379235
scalar MyScenario.node[41].veinsmobility 	totalCO2Emission 	159.40165272143
scalar MyScenario.node[44].appl 	generatedWSMs 	0
scalar MyScenario.node[44].appl 	receivedWSMs 	0
scalar MyScenario.node[44].appl 	generatedBSMs 	29
scalar MyScenario.node[44].appl 	receivedBSMs 	373
scalar MyScenario.node[44].appl 	generatedWSAs 	0
scalar MyScenario.node[44].appl 	receivedWSAs 	0
scalar MyScenario.node[44].nic.phy80211p 	busyTime 	0.001319455782313
scalar MyScenario.node[44].nic.mac1609_4 	ReceivedUnicastPackets 	0
scalar MyScenario.node[44].nic.mac1609_4 	ReceivedBroadcasts 	373
scalar MyScenario.node[44].nic.mac1609_4 	SentPackets 	29
scalar MyScenario.node[44].nic.mac1609_4 	SNIRLostPackets 	0
scalar MyScenario.node[44].nic.mac1609_4 	RXTXLostPackets 	0
scalar MyScenario.node[44].nic.mac1609_4 	TotalLostPackets 	0
scalar MyScenario.node[44].nic.mac1609_4 	DroppedPacketsInMac 	0
scalar MyScenario.node[44].nic.mac1609_4 	TooLittleTime 	0
scalar MyScenario.node[44].nic.mac1609_4 	TimesIntoBackoff 	29
scalar MyScenario.node[44].nic.mac1609_4 	SlotsBackoff 	43
scalar MyScenario.node[44].nic.mac1609_4 	NumInternalContention 	0
scalar MyScenario.node[44].nic.mac1609_4 	totalBusyTime 	0.041837
scalar MyScenario.node[44].veinsmobility 	startTime 	18009.4
scalar MyScenario.node[44].veinsmobility 	totalTime 	29.3
scalar MyScenario.node[44].veinsmobility 	stopTime 	18038.8
scalar MyScenario.node[44].veinsmobility 	minSpeed 	30.659664970683
scalar MyScenario.node[44].veinsmobility 	maxSpeed 	30.889802562272
scalar MyScenario.node[44].veinsmobility 	totalDistance 	900.5786425526
scalar MyScenario.node[44].veinsmobility 	totalCO2Emission 	170.30859996243
scalar MyScenario.node[45].appl 	generatedWSMs 	0
scalar MyScenario.node[45].appl 	receivedWSMs 	0
scalar MyScenario.node[45].appl 	generatedBSMs 	29
scalar MyScenario.node[45].appl 	receivedBSMs 	345
scalar MyScenario.node[45].appl 	generatedWSAs 	0
scalar MyScenario.node[45].appl 	receivedWSAs 	0
scalar MyScenario.node[45].nic.phy80211p 	busyTime 	0.0012204081632652
scalar MyScenario.node[45].nic.mac1609_4 	ReceivedUnicastPackets 	0
scalar MyScenario.node[45].nic.mac1609_4 	ReceivedBroadcasts 	345
scalar MyScenario.node[45].nic.mac1609_4 	SentPackets 	29
scalar MyScenario.node[45].nic.mac1609_4 	SNIRLostPackets 	0
scalar MyScenario.node[45].nic.mac1609_4 	RXTXLostPackets 	0
scalar MyScenario.node[45].nic.mac1609_4 	TotalLostPackets 	0
scalar MyScenario.node[45].nic.mac1609_4 	DroppedPacketsInMac 	0
scalar MyScenario.node[45].nic.mac1609_4 	TooLittleTime 	0
scalar MyScenario.node[45].nic.mac1609_4 	TimesIntoBackoff 	29
scalar MyScenario.node[45].nic.mac1609_4 	SlotsBackoff 	45
scalar MyScenario.node[45].nic.mac1609_4 	NumInternalContention 	0
scalar MyScenario.node[45].nic.mac1609_4 	totalBusyTime 	0.038925
scalar MyScenario.node[45].veinsmobility 	startTime 	18010.6
scalar MyScenario.node[45].veinsmobility 	totalTime 	29.3
scalar MyScenario.node[45].veinsmobility 	stopTime 	18040
scalar MyScenario.node[45].veinsmobility 	minSpeed 	30.606847058017
scalar MyScenario.node[45].veinsmobility 	maxSpeed 	30.921006108342
scalar MyScenario.node[45].veinsmobility 	totalDistance 	900.62227387104
scalar MyScenario.node[45].veinsmobility 	totalCO2Emission 	187.50642815163
scalar MyScenario.node[19].appl 	generatedWSMs 	0
scalar MyScenario.node[19].appl 	receivedWSMs 	0
scalar MyScenario.node[19].appl 	generatedBSMs 	44
scalar MyScenario.node[19].appl 	receivedBSMs 	119
scalar MyScenario.node[19].appl 	generatedWSAs 	0
scalar MyScenario.node[19].appl 	receivedWSAs 	0
scalar MyScenario.node[19].nic.phy80211p 	busyTime 	0.00028191343963554
scalar MyScenario.node[19].nic.mac1609_4 	ReceivedUnicastPackets 	0
scalar MyScenario.node[19].nic.mac1609_4 	ReceivedBroadcasts 	119
scalar MyScenario.node[19].nic.mac1609_4 	SentPackets 	44
scalar MyScenario.node[19].nic.mac1609_4 	SNIRLostPackets 	0
scalar MyScenario.node[19].nic.mac1609_4 	RXTXLostPackets 	0
scalar MyScenario.node[19].nic.mac1609_4 	TotalLostPackets 	0
scalar MyScenario.node[19].nic.mac1609_4 	DroppedPacketsInMac 	0
scalar MyScenario.node[19].nic.mac1609_4 	TooLittleTime 	0
scalar MyScenario.node[19].nic.mac1609_4 	TimesIntoBackoff 	44
scalar MyScenario.node[19].nic.mac1609_4 	SlotsBackoff 	61
scalar MyScenario.node[19].nic.mac1609_4 	NumInternalContention 	0
scalar MyScenario.node[19].nic.mac1609_4 	totalBusyTime 	0.016996
scalar MyScenario.node[19].veinsmobility 	startTime 	18000
scalar MyScenario.node[19].veinsmobility 	totalTime 	43.8
scalar MyScenario.node[19].veinsmobility 	stopTime 	18043.9
scalar MyScenario.node[19].veinsmobility 	minSpeed 	0.24752568442165
scalar MyScenario.node[19].veinsmobility 	maxSpeed 	14.738536383381
scalar MyScenario.node[19].veinsmobility 	totalDistance 	592.86064583414
scalar MyScenario.node[19].veinsmobility 	totalCO2Emission 	126.49176663465
scalar MyScenario.node[47].appl 	generatedWSMs 	0
scalar MyScenario.node[47].appl 	receivedWSMs 	0
scalar MyScenario.node[47].appl 	generatedBSMs 	31
scalar MyScenario.node[47].appl 	receivedBSMs 	356
scalar MyScenario.node[47].appl 	generatedWSAs 	0
scalar MyScenario.node[47].appl 	receivedWSAs 	0
scalar MyScenario.node[47].nic.phy80211p 	busyTime 	0.0012139016393443
scalar MyScenario.node[47].nic.mac1609_4 	ReceivedUnicastPackets 	0
scalar MyScenario.node[47].nic.mac1609_4 	ReceivedBroadcasts 	356
scalar MyScenario.node[47].nic.mac1609_4 	SentPackets 	31
scalar MyScenario.node[47].nic.mac1609_4 	SNIRLostPackets 	0
scalar MyScenario.node[47].nic.mac1609_4 	RXTXLostPackets 	0
scalar MyScenario.node[47].nic.mac1609_4 	TotalLostPackets 	0
scalar MyScenario.node[47].nic.mac1609_4 	DroppedPacketsInMac 	0
scalar MyScenario.node[47].nic.mac1609_4 	TooLittleTime 	0
scalar MyScenario.node[47].nic.mac1609_4 	TimesIntoBackoff 	31
scalar MyScenario.node[47].nic.mac1609_4 	SlotsBackoff 	41
scalar MyScenario.node[47].nic.mac1609_4 	NumInternalContention 	0
scalar MyScenario.node[47].nic.mac1609_4 	totalBusyTime 	0.040279
scalar MyScenario.node[47].veinsmobility 	startTime 	18014.9
scalar MyScenario.node[47].veinsmobility 	totalTime 	30.4
scalar MyScenario.node[47].veinsmobility 	stopTime 	18045.4
scalar MyScenario.node[47].veinsmobility 	minSpeed 	29.624163764321
scalar MyScenario.node[47].veinsmobility 	maxSpeed 	29.763018823966
scalar MyScenario.node[47].veinsmobility 	totalDistance 	902.65545774245
scalar MyScenario.node[47].veinsmobility 	totalCO2Emission 	158.74463898902
scalar MyScenario.node[48].appl 	generatedWSMs 	0
scalar MyScenario.node[48].appl 	receivedWSMs 	0
scalar MyScenario.node[48].appl 	generatedBSMs 	31
scalar MyScenario.node[48].appl 	receivedBSMs 	341
scalar MyScenario.node[48].appl 	generatedWSAs 	0
scalar MyScenario.node[48].appl 	receivedWSAs 	0
scalar MyScenario.node[48].nic.phy80211p 	busyTime 	0.0011811920529801
scalar MyScenario.node[48].nic.mac1609_4 	ReceivedUnicastPackets 	0
scalar MyScenario.node[48].nic.mac1609_4 	ReceivedBroadcasts 	341
scalar MyScenario.node[48].nic.mac1609_4 	SentPackets 	31
scalar MyScenario.node[48].nic.mac1609_4 	SNIRLostPackets 	2
scalar MyScenario.node[48].nic.mac1609_4 	RXTXLostPackets 	0
scalar MyScenario.node[48].nic.mac1609_4 	TotalLostPackets 	2
scalar MyScenario.node[48].nic.mac1609_4 	DroppedPacketsInMac 	0
scalar MyScenario.node[48].nic.mac1609_4 	TooLittleTime 	0
scalar MyScenario.node[48].nic.mac1609_4 	TimesIntoBackoff 	31
scalar MyScenario.node[48].nic.mac1609_4 	SlotsBackoff 	51
scalar MyScenario.node[48].nic.mac1609_4 	NumInternalContention 	0
scalar MyScenario.node[48].nic.mac1609_4 	totalBusyTime 	0.038927
scalar MyScenario.node[48].veinsmobility 	startTime 	18015.2
scalar MyScenario.node[48].veinsmobility 	totalTime 	30.1
scalar MyScenario.node[48].veinsmobility 	stopTime 	18045.4
scalar MyScenario.node[48].veinsmobility 	minSpeed 	29.880024308721
scalar MyScenario.node[48].veinsmobility 	maxSpeed 	29.999185679723
scalar MyScenario.node[48].veinsmobility 	totalDistance 	902.15429076581
scalar MyScenario.node[48].veinsmobility 	totalCO2Emission 	154.7446339561
scalar MyScenario.node[50].appl 	generatedWSMs 	0
scalar MyScenario.node[50].appl 	receivedWSMs 	0
scalar MyScenario.node[50].appl 	generatedBSMs 	31
scalar MyScenario.node[50].appl 	receivedBSMs 	352
scalar MyScenario.node[50].appl 	generatedWSAs 	0
scalar MyScenario.node[50].appl 	receivedWSAs 	0
scalar MyScenario.node[50].nic.phy80211p 	busyTime 	0.0012121854304636
scalar MyScenario.node[50].nic.mac1609_4 	ReceivedUnicastPackets 	0
scalar MyScenario.node[50].nic.mac1609_4 	ReceivedBroadcasts 	352
scalar MyScenario.node[50].nic.mac1609_4 	SentPackets 	31
scalar MyScenario.node[50].nic.mac1609_4 	SNIRLostPackets 	0
scalar MyScenario.node[50].nic.mac1609_4 	RXTXLostPackets 	0
scalar MyScenario.node[50].nic.mac1609_4 	TotalLostPackets 	0
scalar MyScenario.node[50].nic.mac1609_4 	DroppedPacketsInMac 	0
scalar MyScenario.node[50].nic.mac1609_4 	TooLittleTime 	0
scalar MyScenario.node[50].nic.mac1609_4 	TimesIntoBackoff 	31
scalar MyScenario.node[50].nic.mac1609_4 	SlotsBackoff 	47
scalar MyScenario.node[50].nic.mac1609_4 	NumInternalContention 	0
scalar MyScenario.node[50].nic.mac1609_4 	totalBusyTime 	0.039863
scalar MyScenario.node[50].veinsmobility 	startTime 	18016.4
scalar MyScenario.node[50].veinsmobility 	totalTime 	30.1
scalar MyScenario.node[50].veinsmobility 	stopTime 	18046.6
scalar MyScenario.node[50].veinsmobility 	minSpeed 	29.810262513932
scalar MyScenario.node[50].veinsmobility 	maxSpeed 	30.050140246633
scalar MyScenario.node[50].veinsmobility 	totalDistance 	902.09027688286
scalar MyScenario.node[50].veinsmobility 	totalCO2Emission 	169.90599233258
scalar MyScenario.node[49].appl 	generatedWSMs 	0
scalar MyScenario.node[49].appl 	receivedWSMs 	0
scalar MyScenario.node[49].appl 	generatedBSMs 	30
scalar MyScenario.node[49].appl 	receivedBSMs 	364
scalar MyScenario.node[49].appl 	generatedWSAs 	0
scalar MyScenario.node[49].appl 	receivedWSAs 	0
scalar MyScenario.node[49].nic.phy80211p 	busyTime 	0.0012411803278689
scalar MyScenario.node[49].nic.mac1609_4 	ReceivedUnicastPackets 	0
scalar MyScenario.node[49].nic.mac1609_4 	ReceivedBroadcasts 	364
scalar MyScenario.node[49].nic.mac1609_4 	SentPackets 	30
scalar MyScenario.node[49].nic.mac1609_4 	SNIRLostPackets 	0
scalar MyScenario.node[49].nic.mac1609_4 	RXTXLostPackets 	0
scalar MyScenario.node[49].nic.mac1609_4 	TotalLostPackets 	0
scalar MyScenario.node[49].nic.mac1609_4 	DroppedPacketsInMac 	0
scalar MyScenario.node[49].nic.mac1609_4 	TooLittleTime 	0
scalar MyScenario.node[49].nic.mac1609_4 	TimesIntoBackoff 	30
scalar MyScenario.node[49].nic.mac1609_4 	SlotsBackoff 	39
scalar MyScenario.node[49].nic.mac1609_4 	NumInternalContention 	0
scalar MyScenario.node[49].nic.mac1609_4 	totalBusyTime 	0.041006
scalar MyScenario.node[49].veinsmobility 	startTime 	18016.1
scalar MyScenario.node[49].veinsmobility 	totalTime 	30.4
scalar MyScenario.node[49].veinsmobility 	stopTime 	18046.6
scalar MyScenario.node[49].veinsmobility 	minSpeed 	29.55311880229
scalar MyScenario.node[49].veinsmobility 	maxSpeed 	29.944329510202
scalar MyScenario.node[49].veinsmobility 	totalDistance 	902.61439036633
scalar MyScenario.node[49].veinsmobility 	totalCO2Emission 	280.24720161685
scalar MyScenario.node[51].appl 	generatedWSMs 	0
scalar MyScenario.node[51].appl 	receivedWSMs 	0
scalar MyScenario.node[51].appl 	generatedBSMs 	27
scalar MyScenario.node[51].appl 	receivedBSMs 	64
scalar MyScenario.node[51].appl 	generatedWSAs 	0
scalar MyScenario.node[51].appl 	receivedWSAs 	0
scalar MyScenario.node[51].nic.phy80211p 	busyTime 	0.0002429197080292
scalar MyScenario.node[51].nic.mac1609_4 	ReceivedUnicastPackets 	0
scalar MyScenario.node[51].nic.mac1609_4 	ReceivedBroadcasts 	64
scalar MyScenario.node[51].nic.mac1609_4 	SentPackets 	27
scalar MyScenario.node[51].nic.mac1609_4 	SNIRLostPackets 	0
scalar MyScenario.node[51].nic.mac1609_4 	RXTXLostPackets 	0
scalar MyScenario.node[51].nic.mac1609_4 	TotalLostPackets 	0
scalar MyScenario.node[51].nic.mac1609_4 	DroppedPacketsInMac 	0
scalar MyScenario.node[51].nic.mac1609_4 	TooLittleTime 	0
scalar MyScenario.node[51].nic.mac1609_4 	TimesIntoBackoff 	27
scalar MyScenario.node[51].nic.mac1609_4 	SlotsBackoff 	40
scalar MyScenario.node[51].nic.mac1609_4 	NumInternalContention 	0
scalar MyScenario.node[51].nic.mac1609_4 	totalBusyTime 	0.009491
scalar MyScenario.node[51].veinsmobility 	startTime 	18020.2
scalar MyScenario.node[51].veinsmobility 	totalTime 	27.3
scalar MyScenario.node[51].veinsmobility 	stopTime 	18047.6
scalar MyScenario.node[51].veinsmobility 	minSpeed 	3.4785511658223
scalar MyScenario.node[51].veinsmobility 	maxSpeed 	13.699995491374
scalar MyScenario.node[51].veinsmobility 	totalDistance 	315.67449485249
scalar MyScenario.node[51].veinsmobility 	totalCO2Emission 	67.349663282986
scalar MyScenario.node[53].appl 	generatedWSMs 	0
scalar MyScenario.node[53].appl 	receivedWSMs 	0
scalar MyScenario.node[53].appl 	generatedBSMs 	25
scalar MyScenario.node[53].appl 	receivedBSMs 	256
scalar MyScenario.node[53].appl 	generatedWSAs 	0
scalar MyScenario.node[53].appl 	receivedWSAs 	0
scalar MyScenario.node[53].nic.phy80211p 	busyTime 	0.0011001652892562
scalar MyScenario.node[53].nic.mac1609_4 	ReceivedUnicastPackets 	0
scalar MyScenario.node[53].nic.mac1609_4 	ReceivedBroadcasts 	256
scalar MyScenario.node[53].nic.mac1609_4 	SentPackets 	25
scalar MyScenario.node[53].nic.mac1609_4 	SNIRLostPackets 	0
scalar MyScenario.node[53].nic.mac1609_4 	RXTXLostPackets 	0
scalar MyScenario.node[53].nic.mac1609_4 	TotalLostPackets 	0
scalar MyScenario.node[53].nic.mac1609_4 	DroppedPacketsInMac 	0
scalar MyScenario.node[53].nic.mac1609_4 	TooLittleTime 	0
scalar MyScenario.node[53].nic.mac1609_4 	TimesIntoBackoff 	25
scalar MyScenario.node[53].nic.mac1609_4 	SlotsBackoff 	48
scalar MyScenario.node[53].nic.mac1609_4 	NumInternalContention 	0
scalar MyScenario.node[53].nic.mac1609_4 	totalBusyTime 	0.029249
scalar MyScenario.node[53].veinsmobility 	startTime 	18025.1
scalar MyScenario.node[53].veinsmobility 	totalTime 	24.1
scalar MyScenario.node[53].veinsmobility 	stopTime 	18049.3
scalar MyScenario.node[53].veinsmobility 	minSpeed 	35.411246729267
scalar MyScenario.node[53].veinsmobility 	maxSpeed 	37.422348471085
scalar MyScenario.node[53].veinsmobility 	totalDistance 	898.52045007564
scalar MyScenario.node[53].veinsmobility 	totalCO2Emission 	171.99791498937
scalar MyScenario.node[42].appl 	generatedWSMs 	0
scalar MyScenario.node[42].appl 	receivedWSMs 	0
scalar MyScenario.node[42].appl 	generatedBSMs 	45
scalar MyScenario.node[42].appl 	receivedBSMs 	121
scalar MyScenario.node[42].appl 	generatedWSAs 	0
scalar MyScenario.node[42].appl 	receivedWSAs 	0
scalar MyScenario.node[42].nic.phy80211p 	busyTime 	0.00028406320541762
scalar MyScenario.node[42].nic.mac1609_4 	ReceivedUnicastPackets 	0
scalar MyScenario.node[42].nic.mac1609_4 	ReceivedBroadcasts 	121
scalar MyScenario.node[42].nic.mac1609_4 	SentPackets 	45
scalar MyScenario.node[42].nic.mac1609_4 	SNIRLostPackets 	0
scalar MyScenario.node[42].nic.mac1609_4 	RXTXLostPackets 	0
scalar MyScenario.node[42].nic.mac1609_4 	TotalLostPackets 	0
scalar MyScenario.node[42].nic.mac1609_4 	DroppedPacketsInMac 	0
scalar MyScenario.node[42].nic.mac1609_4 	TooLittleTime 	0
scalar MyScenario.node[42].nic.mac1609_4 	TimesIntoBackoff 	45
scalar MyScenario.node[42].nic.mac1609_4 	SlotsBackoff 	61
scalar MyScenario.node[42].nic.mac1609_4 	NumInternalContention 	0
scalar MyScenario.node[42].nic.mac1609_4 	totalBusyTime 	0.017309
scalar MyScenario.node[42].veinsmobility 	startTime 	18008.4
scalar MyScenario.node[42].veinsmobility 	totalTime 	44.2
scalar MyScenario.node[42].veinsmobility 	stopTime 	18052.7
scalar MyScenario.node[42].veinsmobility 	minSpeed 	0
scalar MyScenario.node[42].veinsmobility 	maxSpeed 	12.002075356899
scalar MyScenario.node[42].veinsmobility 	totalDistance 	201.8420837798
scalar MyScenario.node[42].veinsmobility 	totalCO2Emission 	72.849715757862
scalar MyScenario.node[56].appl 	generatedWSMs 	0
scalar MyScenario.node[56].appl 	receivedWSMs 	0
scalar MyScenario.node[56].appl 	generatedBSMs 	24
scalar MyScenario.node[56].appl 	receivedBSMs 	227
scalar MyScenario.node[56].appl 	generatedWSAs 	0
scalar MyScenario.node[56].appl 	receivedWSAs 	0
scalar MyScenario.node[56].nic.phy80211p 	busyTime 	0.00097553719008264
scalar MyScenario.node[56].nic.mac1609_4 	ReceivedUnicastPackets 	0
scalar MyScenario.node[56].nic.mac1609_4 	ReceivedBroadcasts 	227
scalar MyScenario.node[56].nic.mac1609_4 	SentPackets 	24
scalar MyScenario.node[56].nic.mac1609_4 	SNIRLostPackets 	0
scalar MyScenario.node[56].nic.mac1609_4 	RXTXLostPackets 	0
scalar MyScenario.node[56].nic.mac1609_4 	TotalLostPackets 	0
scalar MyScenario.node[56].nic.mac1609_4 	DroppedPacketsInMac 	0
scalar MyScenario.node[56].nic.mac1609_4 	TooLittleTime 	0
scalar MyScenario.node[56].nic.mac1609_4 	TimesIntoBackoff 	24
scalar MyScenario.node[56].nic.mac1609_4 	SlotsBackoff 	30
scalar MyScenario.node[56].nic.mac1609_4 	NumInternalContention 	0
scalar MyScenario.node[56].nic.mac1609_4 	totalBusyTime 	0.026128
scalar MyScenario.node[56].veinsmobility 	startTime 	18030.2
scalar MyScenario.node[56].veinsmobility 	totalTime 	24.1
scalar MyScenario.node[56].veinsmobility 	stopTime 	18054.4
scalar MyScenario.node[56].veinsmobility 	minSpeed 	37.430929543318
scalar MyScenario.node[56].veinsmobility 	maxSpeed 	37.560109543566
scalar MyScenario.node[56].veinsmobility 	totalDistance 	903.7371021566
scalar MyScenario.node[56].veinsmobility 	totalCO2Emission 	187.21928601454
scalar MyScenario.node[57].appl 	generatedWSMs 	0
scalar MyScenario.node[57].appl 	receivedWSMs 	0
scalar MyScenario.node[57].appl 	generatedBSMs 	28
scalar MyScenario.node[57].appl 	receivedBSMs 	220
scalar MyScenario.node[57].appl 	generatedWSAs 	0
scalar MyScenario.node[57].appl 	receivedWSAs 	0
scalar MyScenario.node[57].nic.phy80211p 	busyTime 	0.0008179359430605
scalar MyScenario.node[57].nic.mac1609_4 	ReceivedUnicastPackets 	0
scalar MyScenario.node[57].nic.mac1609_4 	ReceivedBroadcasts 	220
scalar MyScenario.node[57].nic.mac1609_4 	SentPackets 	28
scalar MyScenario.node[57].nic.mac1609_4 	SNIRLostPackets 	1
scalar MyScenario.node[57].nic.mac1609_4 	RXTXLostPackets 	0
scalar MyScenario.node[57].nic.mac1609_4 	TotalLostPackets 	1
scalar MyScenario.node[57].nic.mac1609_4 	DroppedPacketsInMac 	0
scalar MyScenario.node[57].nic.mac1609_4 	TooLittleTime 	0
scalar MyScenario.node[57].nic.mac1609_4 	TimesIntoBackoff 	28
scalar MyScenario.node[57].nic.mac1609_4 	SlotsBackoff 	44
scalar MyScenario.node[57].nic.mac1609_4 	NumInternalContention 	0
scalar MyScenario.node[57].nic.mac1609_4 	totalBusyTime 	0.025924
scalar MyScenario.node[57].veinsmobility 	startTime 	18030.5
scalar MyScenario.node[57].veinsmobility 	totalTime 	28
scalar MyScenario.node[57].veinsmobility 	stopTime 	18058.6
scalar MyScenario.node[57].veinsmobility 	minSpeed 	32.205685473242
scalar MyScenario.node[57].veinsmobility 	maxSpeed 	32.334509923415
scalar MyScenario.node[57].veinsmobility 	totalDistance 	902.41002714814
scalar MyScenario.node[57].veinsmobility 	totalCO2Emission 	163.96158490849
scalar MyScenario.node[58].appl 	generatedWSMs 	0
scalar MyScenario.node[58].appl 	receivedWSMs 	0
scalar MyScenario.node[58].appl 	generatedBSMs 	29
scalar MyScenario.node[58].appl 	receivedBSMs 	256
scalar MyScenario.node[58].appl 	generatedWSAs 	0
scalar MyScenario.node[58].appl 	receivedWSAs 	0
scalar MyScenario.node[58].nic.phy80211p 	busyTime 	0.00091178082191781
scalar MyScenario.node[58].nic.mac1609_4 	ReceivedUnicastPackets 	0
scalar MyScenario.node[58].nic.mac1609_4 	ReceivedBroadcasts 	256
scalar MyScenario.node[58].nic.mac1609_4 	SentPackets 	29
scalar MyScenario.node[58].nic.mac1609_4 	SNIRLostPackets 	0
scalar MyScenario.node[58].nic.mac1609_4 	RXTXLostPackets 	0
scalar MyScenario.node[58].nic.mac1609_4 	TotalLostPackets 	0
scalar MyScenario.node[58].nic.mac1609_4 	DroppedPacketsInMac 	0
scalar MyScenario.node[58].nic.mac1609_4 	TooLittleTime 	0
scalar MyScenario.node[58].nic.mac1609_4 	TimesIntoBackoff 	29
scalar MyScenario.node[58].nic.mac1609_4 	SlotsBackoff 	37
scalar MyScenario.node[58].nic.mac1609_4 	NumInternalContention 	0
scalar MyScenario.node[58].nic.mac1609_4 	totalBusyTime 	0.029669
scalar MyScenario.node[58].veinsmobility 	startTime 	18030.9
scalar MyScenario.node[58].veinsmobility 	totalTime 	29.1
scalar MyScenario.node[58].veinsmobility 	stopTime 	18060.1
scalar MyScenario.node[58].veinsmobility 	minSpeed 	30.950754143969
scalar MyScenario.node[58].veinsmobility 	maxSpeed 	31.085643510988
scalar MyScenario.node[58].veinsmobility 	totalDistance 	901.70842667257
scalar MyScenario.node[58].veinsmobility 	totalCO2Emission 	162.67506643347
scalar MyScenario.node[60].appl 	generatedWSMs 	0
scalar MyScenario.node[60].appl 	receivedWSMs 	0
scalar MyScenario.node[60].appl 	generatedBSMs 	25
scalar MyScenario.node[60].appl 	receivedBSMs 	222
scalar MyScenario.node[60].appl 	generatedWSAs 	0
scalar MyScenario.node[60].appl 	receivedWSAs 	0
scalar MyScenario.node[60].nic.phy80211p 	busyTime 	0.00093473684210526
scalar MyScenario.node[60].nic.mac1609_4 	ReceivedUnicastPackets 	0
scalar MyScenario.node[60].nic.mac1609_4 	ReceivedBroadcasts 	222
scalar MyScenario.node[60].nic.mac1609_4 	SentPackets 	25
scalar MyScenario.node[60].nic.mac1609_4 	SNIRLostPackets 	0
scalar MyScenario.node[60].nic.mac1609_4 	RXTXLostPackets 	0
scalar MyScenario.node[60].nic.mac1609_4 	TotalLostPackets 	0
scalar MyScenario.node[60].nic.mac1609_4 	DroppedPacketsInMac 	0
scalar MyScenario.node[60].nic.mac1609_4 	TooLittleTime 	0
scalar MyScenario.node[60].nic.mac1609_4 	TimesIntoBackoff 	25
scalar MyScenario.node[60].nic.mac1609_4 	SlotsBackoff 	39
scalar MyScenario.node[60].nic.mac1609_4 	NumInternalContention 	0
scalar MyScenario.node[60].nic.mac1609_4 	totalBusyTime 	0.025713
scalar MyScenario.node[60].veinsmobility 	startTime 	18035.6
scalar MyScenario.node[60].veinsmobility 	totalTime 	24.6
scalar MyScenario.node[60].veinsmobility 	stopTime 	18060.3
scalar MyScenario.node[60].veinsmobility 	minSpeed 	34.337370866212
scalar MyScenario.node[60].veinsmobility 	maxSpeed 	37.056898007498
scalar MyScenario.node[60].veinsmobility 	totalDistance 	899.30033576875
scalar MyScenario.node[60].veinsmobility 	totalCO2Emission 	159.05233463688
scalar MyScenario.node[59].appl 	generatedWSMs 	0
scalar MyScenario.node[59].appl 	receivedWSMs 	0
scalar MyScenario.node[59].appl 	generatedBSMs 	29
scalar MyScenario.node[59].appl 	receivedBSMs 	260
scalar MyScenario.node[59].appl 	generatedWSAs 	0
scalar MyScenario.node[59].appl 	receivedWSAs 	0
scalar MyScenario.node[59].nic.phy80211p 	busyTime 	0.00093888888888889
scalar MyScenario.node[59].nic.mac1609_4 	ReceivedUnicastPackets 	0
scalar MyScenario.node[59].nic.mac1609_4 	ReceivedBroadcasts 	260
scalar MyScenario.node[59].nic.mac1609_4 	SentPackets 	29
scalar MyScenario.node[59].nic.mac1609_4 	SNIRLostPackets 	0
scalar MyScenario.node[59].nic.mac1609_4 	RXTXLostPackets 	0
scalar MyScenario.node[59].nic.mac1609_4 	TotalLostPackets 	0
scalar MyScenario.node[59].nic.mac1609_4 	DroppedPacketsInMac 	0
scalar MyScenario.node[59].nic.mac1609_4 	TooLittleTime 	0
scalar MyScenario.node[59].nic.mac1609_4 	TimesIntoBackoff 	29
scalar MyScenario.node[59].nic.mac1609_4 	SlotsBackoff 	44
scalar MyScenario.node[59].nic.mac1609_4 	NumInternalContention 	0
scalar MyScenario.node[59].nic.mac1609_4 	totalBusyTime 	0.030085
scalar MyScenario.node[59].veinsmobility 	startTime 	18034.7
scalar MyScenario.node[59].veinsmobility 	totalTime 	28.7
scalar MyScenario.node[59].veinsmobility 	stopTime 	18063.5
scalar MyScenario.node[59].veinsmobility 	minSpeed 	31.416238033316
scalar MyScenario.node[59].veinsmobility 	maxSpeed 	31.553596435506
scalar MyScenario.node[59].veinsmobility 	totalDistance 	902.50720036572
scalar MyScenario.node[59].veinsmobility 	totalCO2Emission 	164.40212058564
scalar MyScenario.node[61].appl 	generatedWSMs 	0
scalar MyScenario.node[61].appl 	receivedWSMs 	0
scalar MyScenario.node[61].appl 	generatedBSMs 	29
scalar MyScenario.node[61].appl 	receivedBSMs 	261
scalar MyScenario.node[61].appl 	generatedWSAs 	0
scalar MyScenario.node[61].appl 	receivedWSAs 	0
scalar MyScenario.node[61].nic.phy80211p 	busyTime 	0.0009425
scalar MyScenario.node[61].nic.mac1609_4 	ReceivedUnicastPackets 	0
scalar MyScenario.node[61].nic.mac1609_4 	ReceivedBroadcasts 	261
scalar MyScenario.node[61].nic.mac1609_4 	SentPackets 	29
scalar MyScenario.node[61].nic.mac1609_4 	SNIRLostPackets 	0
scalar MyScenario.node[61].nic.mac1609_4 	RXTXLostPackets 	0
scalar MyScenario.node[61].nic.mac1609_4 	TotalLostPackets 	0
scalar MyScenario.node[61].nic.mac1609_4 	DroppedPacketsInMac 	0
scalar MyScenario.node[61].nic.mac1609_4 	TooLittleTime 	0
scalar MyScenario.node[61].nic.mac1609_4 	TimesIntoBackoff 	29
scalar MyScenario.node[61].nic.mac1609_4 	SlotsBackoff 	43
scalar MyScenario.node[61].nic.mac1609_4 	NumInternalContention 	0
scalar MyScenario.node[61].nic.mac1609_4 	totalBusyTime 	0.030189
scalar MyScenario.node[61].veinsmobility 	startTime 	18035.9
scalar MyScenario.node[61].veinsmobility 	totalTime 	28.7
scalar MyScenario.node[61].veinsmobility 	stopTime 	18064.7
scalar MyScenario.node[61].veinsmobility 	minSpeed 	31.375050664059
scalar MyScenario.node[61].veinsmobility 	maxSpeed 	31.611276968851
scalar MyScenario.node[61].veinsmobility 	totalDistance 	902.52713980682
scalar MyScenario.node[61].veinsmobility 	totalCO2Emission 	172.28835475574
scalar MyScenario.node[63].appl 	generatedWSMs 	0
scalar MyScenario.node[63].appl 	receivedWSMs 	0
scalar MyScenario.node[63].appl 	generatedBSMs 	29
scalar MyScenario.node[63].appl 	receivedBSMs 	250
scalar MyScenario.node[63].appl 	generatedWSAs 	0
scalar MyScenario.node[63].appl 	receivedWSAs 	0
scalar MyScenario.node[63].nic.phy80211p 	busyTime 	0.00090592334494773
scalar MyScenario.node[63].nic.mac1609_4 	ReceivedUnicastPackets 	0
scalar MyScenario.node[63].nic.mac1609_4 	ReceivedBroadcasts 	250
scalar MyScenario.node[63].nic.mac1609_4 	SentPackets 	29
scalar MyScenario.node[63].nic.mac1609_4 	SNIRLostPackets 	0
scalar MyScenario.node[63].nic.mac1609_4 	RXTXLostPackets 	0
scalar MyScenario.node[63].nic.mac1609_4 	TotalLostPackets 	0
scalar MyScenario.node[63].nic.mac1609_4 	DroppedPacketsInMac 	0
scalar MyScenario.node[63].nic.mac1609_4 	TooLittleTime 	0
scalar MyScenario.node[63].nic.mac1609_4 	TimesIntoBackoff 	29
scalar MyScenario.node[63].nic.mac1609_4 	SlotsBackoff 	37
scalar MyScenario.node[63].nic.mac1609_4 	NumInternalContention 	0
scalar MyScenario.node[63].nic.mac1609_4 	totalBusyTime 	0.029045
scalar MyScenario.node[63].veinsmobility 	startTime 	18037.2
scalar MyScenario.node[63].veinsmobility 	totalTime 	28.6
scalar MyScenario.node[63].veinsmobility 	stopTime 	18065.9
scalar MyScenario.node[63].veinsmobility 	minSpeed 	31.392387103793
scalar MyScenario.node[63].veinsmobility 	maxSpeed 	31.942404823129
scalar MyScenario.node[63].veinsmobility 	totalDistance 	902.41312944213
scalar MyScenario.node[63].veinsmobility 	totalCO2Emission 	172.39149884494
scalar MyScenario.node[65].appl 	generatedWSMs 	0
scalar MyScenario.node[65].appl 	receivedWSMs 	0
scalar MyScenario.node[65].appl 	generatedBSMs 	26
scalar MyScenario.node[65].appl 	receivedBSMs 	226
scalar MyScenario.node[65].appl 	generatedWSAs 	0
scalar MyScenario.node[65].appl 	receivedWSAs 	0
scalar MyScenario.node[65].nic.phy80211p 	busyTime 	0.00089030303030303
scalar MyScenario.node[65].nic.mac1609_4 	ReceivedUnicastPackets 	0
scalar MyScenario.node[65].nic.mac1609_4 	ReceivedBroadcasts 	226
scalar MyScenario.node[65].nic.mac1609_4 	SentPackets 	26
scalar MyScenario.node[65].nic.mac1609_4 	SNIRLostPackets 	0
scalar MyScenario.node[65].nic.mac1609_4 	RXTXLostPackets 	0
scalar MyScenario.node[65].nic.mac1609_4 	TotalLostPackets 	0
scalar MyScenario.node[65].nic.mac1609_4 	DroppedPacketsInMac 	0
scalar MyScenario.node[65].nic.mac1609_4 	TooLittleTime 	0
scalar MyScenario.node[65].nic.mac1609_4 	TimesIntoBackoff 	26
scalar MyScenario.node[65].nic.mac1609_4 	SlotsBackoff 	42
scalar MyScenario.node[65].nic.mac1609_4 	NumInternalContention 	0
scalar MyScenario.node[65].nic.mac1609_4 	totalBusyTime 	0.026234
scalar MyScenario.node[65].veinsmobility 	startTime 	18040.3
scalar MyScenario.node[65].veinsmobility 	totalTime 	26.3
scalar MyScenario.node[65].veinsmobility 	stopTime 	18066.7
scalar MyScenario.node[65].veinsmobility 	minSpeed 	34.153810617057
scalar MyScenario.node[65].veinsmobility 	maxSpeed 	34.287971240795
scalar MyScenario.node[65].veinsmobility 	totalDistance 	898.9481237996
scalar MyScenario.node[65].veinsmobility 	totalCO2Emission 	169.69318623535
scalar MyScenario.node[70].appl 	generatedWSMs 	0
scalar MyScenario.node[70].appl 	receivedWSMs 	0
scalar MyScenario.node[70].appl 	generatedBSMs 	23
scalar MyScenario.node[70].appl 	receivedBSMs 	183
scalar MyScenario.node[70].appl 	generatedWSAs 	0
scalar MyScenario.node[70].appl 	receivedWSAs 	0
scalar MyScenario.node[70].nic.phy80211p 	busyTime 	0.00085345291479821
scalar MyScenario.node[70].nic.mac1609_4 	ReceivedUnicastPackets 	0
scalar MyScenario.node[70].nic.mac1609_4 	ReceivedBroadcasts 	183
scalar MyScenario.node[70].nic.mac1609_4 	SentPackets 	23
scalar MyScenario.node[70].nic.mac1609_4 	SNIRLostPackets 	0
scalar MyScenario.node[70].nic.mac1609_4 	RXTXLostPackets 	0
scalar MyScenario.node[70].nic.mac1609_4 	TotalLostPackets 	0
scalar MyScenario.node[70].nic.mac1609_4 	DroppedPacketsInMac 	0
scalar MyScenario.node[70].nic.mac1609_4 	TooLittleTime 	0
scalar MyScenario.node[70].nic.mac1609_4 	TimesIntoBackoff 	23
scalar MyScenario.node[70].nic.mac1609_4 	SlotsBackoff 	43
scalar MyScenario.node[70].nic.mac1609_4 	NumInternalContention 	0
scalar MyScenario.node[70].nic.mac1609_4 	totalBusyTime 	0.021447
scalar MyScenario.node[70].veinsmobility 	startTime 	18048.2
scalar MyScenario.node[70].veinsmobility 	totalTime 	22.2
scalar MyScenario.node[70].veinsmobility 	stopTime 	18070.5
scalar MyScenario.node[70].veinsmobility 	minSpeed 	39.4439028146
scalar MyScenario.node[70].veinsmobility 	maxSpeed 	40.688182417596
scalar MyScenario.node[70].veinsmobility 	totalDistance 	901.44964543071
scalar MyScenario.node[70].veinsmobility 	totalCO2Emission 	215.99524835336
scalar MyScenario.node[72].appl 	generatedWSMs 	0
scalar MyScenario.node[72].appl 	receivedWSMs 	0
scalar MyScenario.node[72].appl 	generatedBSMs 	23
scalar MyScenario.node[72].appl 	receivedBSMs 	196
scalar MyScenario.node[72].appl 	generatedWSAs 	0
scalar MyScenario.node[72].appl 	receivedWSAs 	0
scalar MyScenario.node[72].nic.phy80211p 	busyTime 	0.00089797356828194
scalar MyScenario.node[72].nic.mac1609_4 	ReceivedUnicastPackets 	0
scalar MyScenario.node[72].nic.mac1609_4 	ReceivedBroadcasts 	196
scalar MyScenario.node[72].nic.mac1609_4 	SentPackets 	23
scalar MyScenario.node[72].nic.mac1609_4 	SNIRLostPackets 	0
scalar MyScenario.node[72].nic.mac1609_4 	RXTXLostPackets 	0
scalar MyScenario.node[72].nic.mac1609_4 	TotalLostPackets 	0
scalar MyScenario.node[72].nic.mac1609_4 	DroppedPacketsInMac 	0
scalar MyScenario.node[72].nic.mac1609_4 	TooLittleTime 	0
scalar MyScenario.node[72].nic.mac1609_4 	TimesIntoBackoff 	23
scalar MyScenario.node[72].nic.mac1609_4 	SlotsBackoff 	37
scalar MyScenario.node[72].nic.mac1609_4 	NumInternalContention 	0
scalar MyScenario.node[72].nic.mac1609_4 	totalBusyTime 	0.022799
scalar MyScenario.node[72].veinsmobility 	startTime 	18049.1
scalar MyScenario.node[72].veinsmobility 	totalTime 	22.6
scalar MyScenario.node[72].veinsmobility 	stopTime 	18071.8
scalar MyScenario.node[72].veinsmobility 	minSpeed 	39.803489359773
scalar MyScenario.node[72].veinsmobility 	maxSpeed 	39.932863431733
scalar MyScenario.node[72].veinsmobility 	totalDistance 	902.00169633985
scalar MyScenario.node[72].veinsmobility 	totalCO2Emission 	199.47983239278
scalar MyScenario.node[73].appl 	generatedWSMs 	0
scalar MyScenario.node[73].appl 	receivedWSMs 	0
scalar MyScenario.node[73].appl 	generatedBSMs 	22
scalar MyScenario.node[73].appl 	receivedBSMs 	149
scalar MyScenario.node[73].appl 	generatedWSAs 	0
scalar MyScenario.node[73].appl 	receivedWSAs 	0
scalar MyScenario.node[73].nic.phy80211p 	busyTime 	0.00069178571428571
scalar MyScenario.node[73].nic.mac1609_4 	ReceivedUnicastPackets 	0
scalar MyScenario.node[73].nic.mac1609_4 	ReceivedBroadcasts 	149
scalar MyScenario.node[73].nic.mac1609_4 	SentPackets 	22
scalar MyScenario.node[73].nic.mac1609_4 	SNIRLostPackets 	0
scalar MyScenario.node[73].nic.mac1609_4 	RXTXLostPackets 	0
scalar MyScenario.node[73].nic.mac1609_4 	TotalLostPackets 	0
scalar MyScenario.node[73].nic.mac1609_4 	DroppedPacketsInMac 	0
scalar MyScenario.node[73].nic.mac1609_4 	TooLittleTime 	0
scalar MyScenario.node[73].nic.mac1609_4 	TimesIntoBackoff 	22
scalar MyScenario.node[73].nic.mac1609_4 	SlotsBackoff 	41
scalar MyScenario.node[73].nic.mac1609_4 	NumInternalContention 	0
scalar MyScenario.node[73].nic.mac1609_4 	totalBusyTime 	0.017806
scalar MyScenario.node[73].veinsmobility 	startTime 	18049.7
scalar MyScenario.node[73].veinsmobility 	totalTime 	22.3
scalar MyScenario.node[73].veinsmobility 	stopTime 	18072.1
scalar MyScenario.node[73].veinsmobility 	minSpeed 	31.787464947792
scalar MyScenario.node[73].veinsmobility 	maxSpeed 	41.433380747783
scalar MyScenario.node[73].veinsmobility 	totalDistance 	901.81377528533
scalar MyScenario.node[73].veinsmobility 	totalCO2Emission 	289.39091595382
scalar MyScenario.node[69].appl 	generatedWSMs 	0
scalar MyScenario.node[69].appl 	receivedWSMs 	0
scalar MyScenario.node[69].appl 	generatedBSMs 	26
scalar MyScenario.node[69].appl 	receivedBSMs 	215
scalar MyScenario.node[69].appl 	generatedWSAs 	0
scalar MyScenario.node[69].appl 	receivedWSAs 	0
scalar MyScenario.node[69].nic.phy80211p 	busyTime 	0.00085019011406844
scalar MyScenario.node[69].nic.mac1609_4 	ReceivedUnicastPackets 	0
scalar MyScenario.node[69].nic.mac1609_4 	ReceivedBroadcasts 	215
scalar MyScenario.node[69].nic.mac1609_4 	SentPackets 	26
scalar MyScenario.node[69].nic.mac1609_4 	SNIRLostPackets 	0
scalar MyScenario.node[69].nic.mac1609_4 	RXTXLostPackets 	0
scalar MyScenario.node[69].nic.mac1609_4 	TotalLostPackets 	0
scalar MyScenario.node[69].nic.mac1609_4 	DroppedPacketsInMac 	0
scalar MyScenario.node[69].nic.mac1609_4 	TooLittleTime 	0
scalar MyScenario.node[69].nic.mac1609_4 	TimesIntoBackoff 	26
scalar MyScenario.node[69].nic.mac1609_4 	SlotsBackoff 	39
scalar MyScenario.node[69].nic.mac1609_4 	NumInternalContention 	0
scalar MyScenario.node[69].nic.mac1609_4 	totalBusyTime 	0.02509
scalar MyScenario.node[69].veinsmobility 	startTime 	18046.2
scalar MyScenario.node[69].veinsmobility 	totalTime 	26.2
scalar MyScenario.node[69].veinsmobility 	stopTime 	18072.5
scalar MyScenario.node[69].veinsmobility 	minSpeed 	34.31152407006
scalar MyScenario.node[69].veinsmobility 	maxSpeed 	34.459009429643
scalar MyScenario.node[69].veinsmobility 	totalDistance 	899.94697208647
scalar MyScenario.node[69].veinsmobility 	totalCO2Emission 	173.25914215791
scalar MyScenario.node[74].appl 	generatedWSMs 	0
scalar MyScenario.node[74].appl 	receivedWSMs 	0
scalar MyScenario.node[74].appl 	generatedBSMs 	23
scalar MyScenario.node[74].appl 	receivedBSMs 	162
scalar MyScenario.node[74].appl 	generatedWSAs 	0
scalar MyScenario.node[74].appl 	receivedWSAs 	0
scalar MyScenario.node[74].nic.phy80211p 	busyTime 	0.00072620689655172
scalar MyScenario.node[74].nic.mac1609_4 	ReceivedUnicastPackets 	0
scalar MyScenario.node[74].nic.mac1609_4 	ReceivedBroadcasts 	162
scalar MyScenario.node[74].nic.mac1609_4 	SentPackets 	23
scalar MyScenario.node[74].nic.mac1609_4 	SNIRLostPackets 	0
scalar MyScenario.node[74].nic.mac1609_4 	RXTXLostPackets 	0
scalar MyScenario.node[74].nic.mac1609_4 	TotalLostPackets 	0
scalar MyScenario.node[74].nic.mac1609_4 	DroppedPacketsInMac 	0
scalar MyScenario.node[74].nic.mac1609_4 	TooLittleTime 	0
scalar MyScenario.node[74].nic.mac1609_4 	TimesIntoBackoff 	23
scalar MyScenario.node[74].nic.mac1609_4 	SlotsBackoff 	42
scalar MyScenario.node[74].nic.mac1609_4 	NumInternalContention 	0
scalar MyScenario.node[74].nic.mac1609_4 	totalBusyTime 	0.019263
scalar MyScenario.node[74].veinsmobility 	startTime 	18051.9
scalar MyScenario.node[74].veinsmobility 	totalTime 	23.1
scalar MyScenario.node[74].veinsmobility 	stopTime 	18075.1
scalar MyScenario.node[74].veinsmobility 	minSpeed 	38.860873412969
scalar MyScenario.node[74].veinsmobility 	maxSpeed 	38.999620588738
scalar MyScenario.node[74].veinsmobility 	totalDistance 	900.24003891552
scalar MyScenario.node[74].veinsmobility 	totalCO2Emission 	194.54070009402
scalar MyScenario.node[75].appl 	generatedWSMs 	0
scalar MyScenario.node[75].appl 	receivedWSMs 	0
scalar MyScenario.node[75].appl 	generatedBSMs 	23
scalar MyScenario.node[75].appl 	receivedBSMs 	126
scalar MyScenario.node[75].appl 	generatedWSAs 	0
scalar MyScenario.node[75].appl 	receivedWSAs 	0
scalar MyScenario.node[75].nic.phy80211p 	busyTime 	0.00056973913043478
scalar MyScenario.node[75].nic.mac1609_4 	ReceivedUnicastPackets 	0
scalar MyScenario.node[75].nic.mac1609_4 	ReceivedBroadcasts 	126
scalar MyScenario.node[75].nic.mac1609_4 	SentPackets 	23
scalar MyScenario.node[75].nic.mac1609_4 	SNIRLostPackets 	0
scalar MyScenario.node[75].nic.mac1609_4 	RXTXLostPackets 	0
scalar MyScenario.node[75].nic.mac1609_4 	TotalLostPackets 	0
scalar MyScenario.node[75].nic.mac1609_4 	DroppedPacketsInMac 	0
scalar MyScenario.node[75].nic.mac1609_4 	TooLittleTime 	0
scalar MyScenario.node[75].nic.mac1609_4 	TimesIntoBackoff 	23
scalar MyScenario.node[75].nic.mac1609_4 	SlotsBackoff 	42
scalar MyScenario.node[75].nic.mac1609_4 	NumInternalContention 	0
scalar MyScenario.node[75].nic.mac1609_4 	totalBusyTime 	0.015519
scalar MyScenario.node[75].veinsmobility 	startTime 	18053.2
scalar MyScenario.node[75].veinsmobility 	totalTime 	22.9
scalar MyScenario.node[75].veinsmobility 	stopTime 	18076.2
scalar MyScenario.node[75].veinsmobility 	minSpeed 	39.201651915915
scalar MyScenario.node[75].veinsmobility 	maxSpeed 	39.335996041411
scalar MyScenario.node[75].veinsmobility 	totalDistance 	898.09172809273
scalar MyScenario.node[75].veinsmobility 	totalCO2Emission 	196.54849701952
scalar MyScenario.node[78].appl 	generatedWSMs 	0
scalar MyScenario.node[78].appl 	receivedWSMs 	0
scalar MyScenario.node[78].appl 	generatedBSMs 	26
scalar MyScenario.node[78].appl 	receivedBSMs 	117
scalar MyScenario.node[78].appl 	generatedWSAs 	0
scalar MyScenario.node[78].appl 	receivedWSAs 	0
scalar MyScenario.node[78].nic.phy80211p 	busyTime 	0.000468
scalar MyScenario.node[78].nic.mac1609_4 	ReceivedUnicastPackets 	0
scalar MyScenario.node[78].nic.mac1609_4 	ReceivedBroadcasts 	117
scalar MyScenario.node[78].nic.mac1609_4 	SentPackets 	26
scalar MyScenario.node[78].nic.mac1609_4 	SNIRLostPackets 	0
scalar MyScenario.node[78].nic.mac1609_4 	RXTXLostPackets 	0
scalar MyScenario.node[78].nic.mac1609_4 	TotalLostPackets 	0
scalar MyScenario.node[78].nic.mac1609_4 	DroppedPacketsInMac 	0
scalar MyScenario.node[78].nic.mac1609_4 	TooLittleTime 	0
scalar MyScenario.node[78].nic.mac1609_4 	TimesIntoBackoff 	26
scalar MyScenario.node[78].nic.mac1609_4 	SlotsBackoff 	47
scalar MyScenario.node[78].nic.mac1609_4 	NumInternalContention 	0
scalar MyScenario.node[78].nic.mac1609_4 	totalBusyTime 	0.014898
scalar MyScenario.node[78].veinsmobility 	startTime 	18059.6
scalar MyScenario.node[78].veinsmobility 	totalTime 	25.9
scalar MyScenario.node[78].veinsmobility 	stopTime 	18085.6
scalar MyScenario.node[78].veinsmobility 	minSpeed 	34.707754903075
scalar MyScenario.node[78].veinsmobility 	maxSpeed 	34.846815329421
scalar MyScenario.node[78].veinsmobility 	totalDistance 	899.74749527831
[...]
scalar MyScenario.node[71].nic.mac1609_4 	SNIRLostPackets 	0
scalar MyScenario.node[71].nic.mac1609_4 	RXTXLostPackets 	0
scalar MyScenario.node[71].nic.mac1609_4 	TotalLostPackets 	0
scalar MyScenario.node[71].nic.mac1609_4 	DroppedPacketsInMac 	0
scalar MyScenario.node[71].nic.mac1609_4 	TooLittleTime 	0
scalar MyScenario.node[71].nic.mac1609_4 	TimesIntoBackoff 	52
scalar MyScenario.node[71].nic.mac1609_4 	SlotsBackoff 	72
scalar MyScenario.node[71].nic.mac1609_4 	NumInternalContention 	0
scalar MyScenario.node[71].nic.mac1609_4 	totalBusyTime 	0.033436
scalar MyScenario.node[71].veinsmobility 	startTime 	18048.5
scalar MyScenario.node[71].veinsmobility 	totalTime 	51.5
scalar MyScenario.node[71].veinsmobility 	stopTime 	18100
scalar MyScenario.node[71].veinsmobility 	minSpeed 	0.0017913652479115
scalar MyScenario.node[71].veinsmobility 	maxSpeed 	14.834224167172
scalar MyScenario.node[71].veinsmobility 	totalDistance 	623.86251530851
scalar MyScenario.node[71].veinsmobility 	totalCO2Emission 	153.16707163726
scalar MyScenario.node[67].appl 	generatedWSMs 	0
scalar MyScenario.node[67].appl 	receivedWSMs 	0
scalar MyScenario.node[67].appl 	generatedBSMs 	56
scalar MyScenario.node[67].appl 	receivedBSMs 	68
scalar MyScenario.node[67].appl 	generatedWSAs 	0
scalar MyScenario.node[67].appl 	receivedWSAs 	0
scalar MyScenario.node[67].nic.phy80211p 	busyTime 	0.00012673835125448
scalar MyScenario.node[67].nic.mac1609_4 	ReceivedUnicastPackets 	0
scalar MyScenario.node[67].nic.mac1609_4 	ReceivedBroadcasts 	68
scalar MyScenario.node[67].nic.mac1609_4 	SentPackets 	56
scalar MyScenario.node[67].nic.mac1609_4 	SNIRLostPackets 	0
scalar MyScenario.node[67].nic.mac1609_4 	RXTXLostPackets 	0
scalar MyScenario.node[67].nic.mac1609_4 	TotalLostPackets 	0
scalar MyScenario.node[67].nic.mac1609_4 	DroppedPacketsInMac 	0
scalar MyScenario.node[67].nic.mac1609_4 	TooLittleTime 	0
scalar MyScenario.node[67].nic.mac1609_4 	TimesIntoBackoff 	56
scalar MyScenario.node[67].nic.mac1609_4 	SlotsBackoff 	96
scalar MyScenario.node[67].nic.mac1609_4 	NumInternalContention 	0
scalar MyScenario.node[67].nic.mac1609_4 	totalBusyTime 	0.012952
scalar MyScenario.node[67].veinsmobility 	startTime 	18044.2
scalar MyScenario.node[67].veinsmobility 	totalTime 	55.8
scalar MyScenario.node[67].veinsmobility 	stopTime 	18100
scalar MyScenario.node[67].veinsmobility 	minSpeed 	0
scalar MyScenario.node[67].veinsmobility 	maxSpeed 	13.907029130801
scalar MyScenario.node[67].veinsmobility 	totalDistance 	415.17137693536
scalar MyScenario.node[67].veinsmobility 	totalCO2Emission 	113.52247901679
scalar MyScenario.node[23].appl 	generatedWSMs 	0
scalar MyScenario.node[23].appl 	receivedWSMs 	0
scalar MyScenario.node[23].appl 	generatedBSMs 	100
scalar MyScenario.node[23].appl 	receivedBSMs 	56
scalar MyScenario.node[23].appl 	generatedWSAs 	0
scalar MyScenario.node[23].appl 	receivedWSAs 	0
scalar MyScenario.node[23].nic.phy80211p 	busyTime 	5.824e-05
scalar MyScenario.node[23].nic.mac1609_4 	ReceivedUnicastPackets 	0
scalar MyScenario.node[23].nic.mac1609_4 	ReceivedBroadcasts 	56
scalar MyScenario.node[23].nic.mac1609_4 	SentPackets 	100
scalar MyScenario.node[23].nic.mac1609_4 	SNIRLostPackets 	0
scalar MyScenario.node[23].nic.mac1609_4 	RXTXLostPackets 	0
scalar MyScenario.node[23].nic.mac1609_4 	TotalLostPackets 	0
scalar MyScenario.node[23].nic.mac1609_4 	DroppedPacketsInMac 	0
scalar MyScenario.node[23].nic.mac1609_4 	TooLittleTime 	0
scalar MyScenario.node[23].nic.mac1609_4 	TimesIntoBackoff 	100
scalar MyScenario.node[23].nic.mac1609_4 	SlotsBackoff 	171
scalar MyScenario.node[23].nic.mac1609_4 	NumInternalContention 	0
scalar MyScenario.node[23].nic.mac1609_4 	totalBusyTime 	0.016324
scalar MyScenario.node[23].veinsmobility 	startTime 	18000
scalar MyScenario.node[23].veinsmobility 	totalTime 	100
scalar MyScenario.node[23].veinsmobility 	stopTime 	18100
scalar MyScenario.node[23].veinsmobility 	minSpeed 	4.5366951169462e-14
scalar MyScenario.node[23].veinsmobility 	maxSpeed 	17.587280682643
scalar MyScenario.node[23].veinsmobility 	totalDistance 	643.54614051202
scalar MyScenario.node[23].veinsmobility 	totalCO2Emission 	223.12906125776
scalar MyScenario.node[90].appl 	generatedWSMs 	0
scalar MyScenario.node[90].appl 	receivedWSMs 	0
scalar MyScenario.node[90].appl 	generatedBSMs 	12
scalar MyScenario.node[90].appl 	receivedBSMs 	98
scalar MyScenario.node[90].appl 	generatedWSAs 	0
scalar MyScenario.node[90].appl 	receivedWSAs 	0
scalar MyScenario.node[90].nic.phy80211p 	busyTime 	0.00086372881355932
scalar MyScenario.node[90].nic.mac1609_4 	ReceivedUnicastPackets 	0
scalar MyScenario.node[90].nic.mac1609_4 	ReceivedBroadcasts 	98
scalar MyScenario.node[90].nic.mac1609_4 	SentPackets 	12
scalar MyScenario.node[90].nic.mac1609_4 	SNIRLostPackets 	0
scalar MyScenario.node[90].nic.mac1609_4 	RXTXLostPackets 	0
scalar MyScenario.node[90].nic.mac1609_4 	TotalLostPackets 	0
scalar MyScenario.node[90].nic.mac1609_4 	DroppedPacketsInMac 	0
scalar MyScenario.node[90].nic.mac1609_4 	TooLittleTime 	0
scalar MyScenario.node[90].nic.mac1609_4 	TimesIntoBackoff 	12
scalar MyScenario.node[90].nic.mac1609_4 	SlotsBackoff 	20
scalar MyScenario.node[90].nic.mac1609_4 	NumInternalContention 	0
scalar MyScenario.node[90].nic.mac1609_4 	totalBusyTime 	0.011452
scalar MyScenario.node[90].veinsmobility 	startTime 	18088.2
scalar MyScenario.node[90].veinsmobility 	totalTime 	11.8
scalar MyScenario.node[90].veinsmobility 	stopTime 	18100
scalar MyScenario.node[90].veinsmobility 	minSpeed 	28.970444390791
scalar MyScenario.node[90].veinsmobility 	maxSpeed 	36.382173120743
scalar MyScenario.node[90].veinsmobility 	totalDistance 	415.27398084774
scalar MyScenario.node[90].veinsmobility 	totalCO2Emission 	138.33959684855
scalar MyScenario.node[24].appl 	generatedWSMs 	0
scalar MyScenario.node[24].appl 	receivedWSMs 	0
scalar MyScenario.node[24].appl 	generatedBSMs 	100
scalar MyScenario.node[24].appl 	receivedBSMs 	375
scalar MyScenario.node[24].appl 	generatedWSAs 	0
scalar MyScenario.node[24].appl 	receivedWSAs 	0
scalar MyScenario.node[24].nic.phy80211p 	busyTime 	0.00039
scalar MyScenario.node[24].nic.mac1609_4 	ReceivedUnicastPackets 	0
scalar MyScenario.node[24].nic.mac1609_4 	ReceivedBroadcasts 	375
scalar MyScenario.node[24].nic.mac1609_4 	SentPackets 	100
scalar MyScenario.node[24].nic.mac1609_4 	SNIRLostPackets 	0
scalar MyScenario.node[24].nic.mac1609_4 	RXTXLostPackets 	0
scalar MyScenario.node[24].nic.mac1609_4 	TotalLostPackets 	0
scalar MyScenario.node[24].nic.mac1609_4 	DroppedPacketsInMac 	0
scalar MyScenario.node[24].nic.mac1609_4 	TooLittleTime 	0
scalar MyScenario.node[24].nic.mac1609_4 	TimesIntoBackoff 	100
scalar MyScenario.node[24].nic.mac1609_4 	SlotsBackoff 	143
scalar MyScenario.node[24].nic.mac1609_4 	NumInternalContention 	0
scalar MyScenario.node[24].nic.mac1609_4 	totalBusyTime 	0.0495
scalar MyScenario.node[24].veinsmobility 	startTime 	18000
scalar MyScenario.node[24].veinsmobility 	totalTime 	100
scalar MyScenario.node[24].veinsmobility 	stopTime 	18100
scalar MyScenario.node[24].veinsmobility 	minSpeed 	0
scalar MyScenario.node[24].veinsmobility 	maxSpeed 	14.394419183297
scalar MyScenario.node[24].veinsmobility 	totalDistance 	705.72960697907
scalar MyScenario.node[24].veinsmobility 	totalCO2Emission 	211.26394649432
scalar MyScenario.node[85].appl 	generatedWSMs 	0
scalar MyScenario.node[85].appl 	receivedWSMs 	0
scalar MyScenario.node[85].appl 	generatedBSMs 	17
scalar MyScenario.node[85].appl 	receivedBSMs 	23
scalar MyScenario.node[85].appl 	generatedWSAs 	0
scalar MyScenario.node[85].appl 	receivedWSAs 	0
scalar MyScenario.node[85].nic.phy80211p 	busyTime 	0.00013514124293785
scalar MyScenario.node[85].nic.mac1609_4 	ReceivedUnicastPackets 	0
scalar MyScenario.node[85].nic.mac1609_4 	ReceivedBroadcasts 	23
scalar MyScenario.node[85].nic.mac1609_4 	SentPackets 	17
scalar MyScenario.node[85].nic.mac1609_4 	SNIRLostPackets 	0
scalar MyScenario.node[85].nic.mac1609_4 	RXTXLostPackets 	0
scalar MyScenario.node[85].nic.mac1609_4 	TotalLostPackets 	0
scalar MyScenario.node[85].nic.mac1609_4 	DroppedPacketsInMac 	0
scalar MyScenario.node[85].nic.mac1609_4 	TooLittleTime 	0
scalar MyScenario.node[85].nic.mac1609_4 	TimesIntoBackoff 	17
scalar MyScenario.node[85].nic.mac1609_4 	SlotsBackoff 	23
scalar MyScenario.node[85].nic.mac1609_4 	NumInternalContention 	0
scalar MyScenario.node[85].nic.mac1609_4 	totalBusyTime 	0.004177
scalar MyScenario.node[85].veinsmobility 	startTime 	18082.3
scalar MyScenario.node[85].veinsmobility 	totalTime 	17.7
scalar MyScenario.node[85].veinsmobility 	stopTime 	18100
scalar MyScenario.node[85].veinsmobility 	minSpeed 	3.3587439876751
scalar MyScenario.node[85].veinsmobility 	maxSpeed 	12.287867836983
scalar MyScenario.node[85].veinsmobility 	totalDistance 	178.10884378191
scalar MyScenario.node[85].veinsmobility 	totalCO2Emission 	50.097389111999
scalar MyScenario.node[55].appl 	generatedWSMs 	0
scalar MyScenario.node[55].appl 	receivedWSMs 	0
scalar MyScenario.node[55].appl 	generatedBSMs 	71
scalar MyScenario.node[55].appl 	receivedBSMs 	264
scalar MyScenario.node[55].appl 	generatedWSAs 	0
scalar MyScenario.node[55].appl 	receivedWSAs 	0
scalar MyScenario.node[55].nic.phy80211p 	busyTime 	0.00038507713884993
scalar MyScenario.node[55].nic.mac1609_4 	ReceivedUnicastPackets 	0
scalar MyScenario.node[55].nic.mac1609_4 	ReceivedBroadcasts 	264
scalar MyScenario.node[55].nic.mac1609_4 	SentPackets 	71
scalar MyScenario.node[55].nic.mac1609_4 	SNIRLostPackets 	0
scalar MyScenario.node[55].nic.mac1609_4 	RXTXLostPackets 	0
scalar MyScenario.node[55].nic.mac1609_4 	TotalLostPackets 	0
scalar MyScenario.node[55].nic.mac1609_4 	DroppedPacketsInMac 	0
scalar MyScenario.node[55].nic.mac1609_4 	TooLittleTime 	0
scalar MyScenario.node[55].nic.mac1609_4 	TimesIntoBackoff 	71
scalar MyScenario.node[55].nic.mac1609_4 	SlotsBackoff 	101
scalar MyScenario.node[55].nic.mac1609_4 	NumInternalContention 	0
scalar MyScenario.node[55].nic.mac1609_4 	totalBusyTime 	0.034911
scalar MyScenario.node[55].veinsmobility 	startTime 	18028.7
scalar MyScenario.node[55].veinsmobility 	totalTime 	71.3
scalar MyScenario.node[55].veinsmobility 	stopTime 	18100
scalar MyScenario.node[55].veinsmobility 	minSpeed 	4.5366093830908e-14
scalar MyScenario.node[55].veinsmobility 	maxSpeed 	14.592682148025
scalar MyScenario.node[55].veinsmobility 	totalDistance 	287.18422587327
scalar MyScenario.node[55].veinsmobility 	totalCO2Emission 	124.91513053801
scalar MyScenario.node[97].appl 	generatedWSMs 	0
scalar MyScenario.node[97].appl 	receivedWSMs 	0
scalar MyScenario.node[97].appl 	generatedBSMs 	3
scalar MyScenario.node[97].appl 	receivedBSMs 	5
scalar MyScenario.node[97].appl 	generatedWSAs 	0
scalar MyScenario.node[97].appl 	receivedWSAs 	0
scalar MyScenario.node[97].nic.phy80211p 	busyTime 	0.00017931034482759
scalar MyScenario.node[97].nic.mac1609_4 	ReceivedUnicastPackets 	0
scalar MyScenario.node[97].nic.mac1609_4 	ReceivedBroadcasts 	5
scalar MyScenario.node[97].nic.mac1609_4 	SentPackets 	3
scalar MyScenario.node[97].nic.mac1609_4 	SNIRLostPackets 	0
scalar MyScenario.node[97].nic.mac1609_4 	RXTXLostPackets 	0
scalar MyScenario.node[97].nic.mac1609_4 	TotalLostPackets 	0
scalar MyScenario.node[97].nic.mac1609_4 	DroppedPacketsInMac 	0
scalar MyScenario.node[97].nic.mac1609_4 	TooLittleTime 	0
scalar MyScenario.node[97].nic.mac1609_4 	TimesIntoBackoff 	3
scalar MyScenario.node[97].nic.mac1609_4 	SlotsBackoff 	5
scalar MyScenario.node[97].nic.mac1609_4 	NumInternalContention 	0
scalar MyScenario.node[97].nic.mac1609_4 	totalBusyTime 	0.000835
scalar MyScenario.node[97].veinsmobility 	startTime 	18097.1
scalar MyScenario.node[97].veinsmobility 	totalTime 	2.9
scalar MyScenario.node[97].veinsmobility 	stopTime 	18100
scalar MyScenario.node[97].veinsmobility 	minSpeed 	15.753118865149
scalar MyScenario.node[97].veinsmobility 	maxSpeed 	15.876100426432
scalar MyScenario.node[97].veinsmobility 	totalDistance 	46.037975766563
scalar MyScenario.node[97].veinsmobility 	totalCO2Emission 	7.3683327760562
scalar MyScenario.node[99].appl 	generatedWSMs 	0
scalar MyScenario.node[99].appl 	receivedWSMs 	0
scalar MyScenario.node[99].appl 	generatedBSMs 	2
scalar MyScenario.node[99].appl 	receivedBSMs 	3
scalar MyScenario.node[99].appl 	generatedWSAs 	0
scalar MyScenario.node[99].appl 	receivedWSAs 	0
scalar MyScenario.node[99].nic.phy80211p 	busyTime 	0.00017333333333333
scalar MyScenario.node[99].nic.mac1609_4 	ReceivedUnicastPackets 	0
scalar MyScenario.node[99].nic.mac1609_4 	ReceivedBroadcasts 	3
scalar MyScenario.node[99].nic.mac1609_4 	SentPackets 	2
scalar MyScenario.node[99].nic.mac1609_4 	SNIRLostPackets 	0
scalar MyScenario.node[99].nic.mac1609_4 	RXTXLostPackets 	0
scalar MyScenario.node[99].nic.mac1609_4 	TotalLostPackets 	0
scalar MyScenario.node[99].nic.mac1609_4 	DroppedPacketsInMac 	0
scalar MyScenario.node[99].nic.mac1609_4 	TooLittleTime 	0
scalar MyScenario.node[99].nic.mac1609_4 	TimesIntoBackoff 	2
scalar MyScenario.node[99].nic.mac1609_4 	SlotsBackoff 	3
scalar MyScenario.node[99].nic.mac1609_4 	NumInternalContention 	0
scalar MyScenario.node[99].nic.mac1609_4 	totalBusyTime 	0.000522
scalar MyScenario.node[99].veinsmobility 	startTime 	18098.2
scalar MyScenario.node[99].veinsmobility 	totalTime 	1.8
scalar MyScenario.node[99].veinsmobility 	stopTime 	18100
scalar MyScenario.node[99].veinsmobility 	minSpeed 	12.666071504784
scalar MyScenario.node[99].veinsmobility 	maxSpeed 	12.795325654281
scalar MyScenario.node[99].veinsmobility 	totalDistance 	22.911751463251
scalar MyScenario.node[99].veinsmobility 	totalCO2Emission 	3.7329499462556
scalar MyScenario.node[37].appl 	generatedWSMs 	0
scalar MyScenario.node[37].appl 	receivedWSMs 	0
scalar MyScenario.node[37].appl 	generatedBSMs 	94
scalar MyScenario.node[37].appl 	receivedBSMs 	93
scalar MyScenario.node[37].appl 	generatedWSAs 	0
scalar MyScenario.node[37].appl 	receivedWSAs 	0
scalar MyScenario.node[37].nic.phy80211p 	busyTime 	0.00010191780821918
scalar MyScenario.node[37].nic.mac1609_4 	ReceivedUnicastPackets 	0
scalar MyScenario.node[37].nic.mac1609_4 	ReceivedBroadcasts 	93
scalar MyScenario.node[37].nic.mac1609_4 	SentPackets 	94
scalar MyScenario.node[37].nic.mac1609_4 	SNIRLostPackets 	0
scalar MyScenario.node[37].nic.mac1609_4 	RXTXLostPackets 	0
scalar MyScenario.node[37].nic.mac1609_4 	TotalLostPackets 	0
scalar MyScenario.node[37].nic.mac1609_4 	DroppedPacketsInMac 	0
scalar MyScenario.node[37].nic.mac1609_4 	TooLittleTime 	0
scalar MyScenario.node[37].nic.mac1609_4 	TimesIntoBackoff 	94
scalar MyScenario.node[37].nic.mac1609_4 	SlotsBackoff 	120
scalar MyScenario.node[37].nic.mac1609_4 	NumInternalContention 	0
scalar MyScenario.node[37].nic.mac1609_4 	totalBusyTime 	0.019542
scalar MyScenario.node[37].veinsmobility 	startTime 	18005.1
scalar MyScenario.node[37].veinsmobility 	totalTime 	94.9
scalar MyScenario.node[37].veinsmobility 	stopTime 	18100
scalar MyScenario.node[37].veinsmobility 	minSpeed 	0.28733341998886
scalar MyScenario.node[37].veinsmobility 	maxSpeed 	17.299245610917
scalar MyScenario.node[37].veinsmobility 	totalDistance 	1210.5360472667
scalar MyScenario.node[37].veinsmobility 	totalCO2Emission 	340.50862056932
scalar MyScenario.node[25].appl 	generatedWSMs 	0
scalar MyScenario.node[25].appl 	receivedWSMs 	0
scalar MyScenario.node[25].appl 	generatedBSMs 	100
scalar MyScenario.node[25].appl 	receivedBSMs 	450
scalar MyScenario.node[25].appl 	generatedWSAs 	0
scalar MyScenario.node[25].appl 	receivedWSAs 	0
scalar MyScenario.node[25].nic.phy80211p 	busyTime 	0.000468
scalar MyScenario.node[25].nic.mac1609_4 	ReceivedUnicastPackets 	0
scalar MyScenario.node[25].nic.mac1609_4 	ReceivedBroadcasts 	450
scalar MyScenario.node[25].nic.mac1609_4 	SentPackets 	100
scalar MyScenario.node[25].nic.mac1609_4 	SNIRLostPackets 	0
scalar MyScenario.node[25].nic.mac1609_4 	RXTXLostPackets 	0
scalar MyScenario.node[25].nic.mac1609_4 	TotalLostPackets 	0
scalar MyScenario.node[25].nic.mac1609_4 	DroppedPacketsInMac 	0
scalar MyScenario.node[25].nic.mac1609_4 	TooLittleTime 	0
scalar MyScenario.node[25].nic.mac1609_4 	TimesIntoBackoff 	100
scalar MyScenario.node[25].nic.mac1609_4 	SlotsBackoff 	154
scalar MyScenario.node[25].nic.mac1609_4 	NumInternalContention 	0
scalar MyScenario.node[25].nic.mac1609_4 	totalBusyTime 	0.0573
scalar MyScenario.node[25].veinsmobility 	startTime 	18000
scalar MyScenario.node[25].veinsmobility 	totalTime 	100
scalar MyScenario.node[25].veinsmobility 	stopTime 	18100
scalar MyScenario.node[25].veinsmobility 	minSpeed 	0
scalar MyScenario.node[25].veinsmobility 	maxSpeed 	16.522944753392
scalar MyScenario.node[25].veinsmobility 	totalDistance 	703.41942722259
scalar MyScenario.node[25].veinsmobility 	totalCO2Emission 	226.03012198509
scalar MyScenario.node[27].appl 	generatedWSMs 	0
scalar MyScenario.node[27].appl 	receivedWSMs 	0
scalar MyScenario.node[27].appl 	generatedBSMs 	100
scalar MyScenario.node[27].appl 	receivedBSMs 	474
scalar MyScenario.node[27].appl 	generatedWSAs 	0
scalar MyScenario.node[27].appl 	receivedWSAs 	0
scalar MyScenario.node[27].nic.phy80211p 	busyTime 	0.00049296
scalar MyScenario.node[27].nic.mac1609_4 	ReceivedUnicastPackets 	0
scalar MyScenario.node[27].nic.mac1609_4 	ReceivedBroadcasts 	474
scalar MyScenario.node[27].nic.mac1609_4 	SentPackets 	100
scalar MyScenario.node[27].nic.mac1609_4 	SNIRLostPackets 	0
scalar MyScenario.node[27].nic.mac1609_4 	RXTXLostPackets 	0
scalar MyScenario.node[27].nic.mac1609_4 	TotalLostPackets 	0
scalar MyScenario.node[27].nic.mac1609_4 	DroppedPacketsInMac 	0
scalar MyScenario.node[27].nic.mac1609_4 	TooLittleTime 	0
scalar MyScenario.node[27].nic.mac1609_4 	TimesIntoBackoff 	100
scalar MyScenario.node[27].nic.mac1609_4 	SlotsBackoff 	128
scalar MyScenario.node[27].nic.mac1609_4 	NumInternalContention 	0
scalar MyScenario.node[27].nic.mac1609_4 	totalBusyTime 	0.059796
scalar MyScenario.node[27].veinsmobility 	startTime 	18000
scalar MyScenario.node[27].veinsmobility 	totalTime 	100
scalar MyScenario.node[27].veinsmobility 	stopTime 	18100
scalar MyScenario.node[27].veinsmobility 	minSpeed 	0
scalar MyScenario.node[27].veinsmobility 	maxSpeed 	15.316213977082
scalar MyScenario.node[27].veinsmobility 	totalDistance 	711.12739016554
scalar MyScenario.node[27].veinsmobility 	totalCO2Emission 	209.87398108987
scalar MyScenario.node[29].appl 	generatedWSMs 	0
scalar MyScenario.node[29].appl 	receivedWSMs 	0
scalar MyScenario.node[29].appl 	generatedBSMs 	100
scalar MyScenario.node[29].appl 	receivedBSMs 	474
scalar MyScenario.node[29].appl 	generatedWSAs 	0
scalar MyScenario.node[29].appl 	receivedWSAs 	0
scalar MyScenario.node[29].nic.phy80211p 	busyTime 	0.00049296
scalar MyScenario.node[29].nic.mac1609_4 	ReceivedUnicastPackets 	0
scalar MyScenario.node[29].nic.mac1609_4 	ReceivedBroadcasts 	474
scalar MyScenario.node[29].nic.mac1609_4 	SentPackets 	100
scalar MyScenario.node[29].nic.mac1609_4 	SNIRLostPackets 	0
scalar MyScenario.node[29].nic.mac1609_4 	RXTXLostPackets 	0
scalar MyScenario.node[29].nic.mac1609_4 	TotalLostPackets 	0
scalar MyScenario.node[29].nic.mac1609_4 	DroppedPacketsInMac 	0
scalar MyScenario.node[29].nic.mac1609_4 	TooLittleTime 	0
scalar MyScenario.node[29].nic.mac1609_4 	TimesIntoBackoff 	100
scalar MyScenario.node[29].nic.mac1609_4 	SlotsBackoff 	166
scalar MyScenario.node[29].nic.mac1609_4 	NumInternalContention 	0
scalar MyScenario.node[29].nic.mac1609_4 	totalBusyTime 	0.059796
scalar MyScenario.node[29].veinsmobility 	startTime 	18000
scalar MyScenario.node[29].veinsmobility 	totalTime 	100
scalar MyScenario.node[29].veinsmobility 	stopTime 	18100
scalar MyScenario.node[29].veinsmobility 	minSpeed 	0
scalar MyScenario.node[29].veinsmobility 	maxSpeed 	13.008087698651
scalar MyScenario.node[29].veinsmobility 	totalDistance 	698.75655149593
scalar MyScenario.node[29].veinsmobility 	totalCO2Emission 	205.81463001813
