version 2
run AttackerType16-42-20180205-20:04:01-51735
attr configname AttackerType16
attr datetime 20180205-20:04:01
attr experiment AttackerType16
attr inifile omnetpp_42.ini
attr iterationvars "$start=7, $0=0.3"
attr iterationvarsf start=7,0.3-
attr measurement "$start=7, $0=0.3"
attr network MyScenario
attr processid 51735
attr repetition 2
attr replication #2
attr resultdir results
attr runnumber 42
attr seedset 2
attr start 7
param **.**.**.debug false
param **.**.nic.**.debug false
param **.coreDebug false
param **.debug false
param *.**.nic.mac1609_4.bitrate 6Mbps
param *.**.nic.mac1609_4.txPower 20mW
param *.**.nic.mac1609_4.useServiceChannel false
param *.**.nic.phy80211p.analogueModels "xmldoc(\"config.xml\")"
param *.**.nic.phy80211p.antenna "xmldoc(\"antenna.xml\", \"/root/Antenna[@id='monopole']\")"
param *.**.nic.phy80211p.decider "xmldoc(\"config.xml\")"
param *.**.nic.phy80211p.sensitivity -89dBm
param *.**.nic.phy80211p.thermalNoise -110dBm
param *.**.nic.phy80211p.usePropagationDelay true
param *.**.nic.phy80211p.useThermalNoise true
param *.**.veinsmobility.x 0
param *.**.veinsmobility.y 0
param *.**.veinsmobility.z 1.895
param *.**.veinsmobilityType.debug false
param *.annotations.draw false
param *.connectionManager.drawMaxIntfDist false
param *.connectionManager.maxInterfDist 2600m
param *.connectionManager.sendDirect true
param *.manager.autoShutdown true
param *.manager.configFile "\"dua.static.sumocfg\""
param *.manager.firstStepAt 7h
param *.manager.host "\"localhost\""
param *.manager.launchConfig "xmldoc(\"luxembourg.launchd.xml\")"
param *.manager.roiRects "\"2300,5400-6300,6300\""
param *.manager.seed 2
param *.manager.updateInterval 0.1s
param *.node[*].appl.attackerProbability 0.3
param *.node[*].appl.attackerType 16
param *.node[*].appl.beaconInterval 1s
param *.node[*].appl.dataOnSch false
param *.node[*].appl.headerLength "80 bit"
param *.node[*].appl.sendBeacons true
param *.node[*].appl.traceGroundTruthJSONFile "\"GroundTruthJSONlog\""
param *.node[*].appl.traceJSONFile "\"JSONlog-\""
param *.node[*].applType "\"AttackerApp\""
param *.obstacles.debug false
param *.obstacles.obstacles "xmldoc(\"config.xml\", \"//AnalogueModel[@type='SimpleObstacleShadowing']/obstacles\")"
param *.playgroundSizeX 13640m
param *.playgroundSizeY 11500m
param *.playgroundSizeZ 50m

scalar _runattrs_ 	start 	7
scalar MyScenario.node[144].appl 	generatedWSMs 	0
scalar MyScenario.node[144].appl 	receivedWSMs 	0
scalar MyScenario.node[144].appl 	generatedBSMs 	0
scalar MyScenario.node[144].appl 	receivedBSMs 	5
scalar MyScenario.node[144].appl 	generatedWSAs 	0
scalar MyScenario.node[144].appl 	receivedWSAs 	0
scalar MyScenario.node[144].nic.phy80211p 	busyTime 	0.0026
scalar MyScenario.node[144].nic.mac1609_4 	ReceivedUnicastPackets 	0
scalar MyScenario.node[144].nic.mac1609_4 	ReceivedBroadcasts 	5
scalar MyScenario.node[144].nic.mac1609_4 	SentPackets 	0
scalar MyScenario.node[144].nic.mac1609_4 	SNIRLostPackets 	0
scalar MyScenario.node[144].nic.mac1609_4 	RXTXLostPackets 	0
scalar MyScenario.node[144].nic.mac1609_4 	TotalLostPackets 	0
scalar MyScenario.node[144].nic.mac1609_4 	DroppedPacketsInMac 	0
scalar MyScenario.node[144].nic.mac1609_4 	TooLittleTime 	0
scalar MyScenario.node[144].nic.mac1609_4 	TimesIntoBackoff 	0
scalar MyScenario.node[144].nic.mac1609_4 	SlotsBackoff 	0
scalar MyScenario.node[144].nic.mac1609_4 	NumInternalContention 	0
scalar MyScenario.node[144].nic.mac1609_4 	totalBusyTime 	0.00052
scalar MyScenario.node[144].veinsmobility 	startTime 	25200
scalar MyScenario.node[144].veinsmobility 	totalTime 	0.1
scalar MyScenario.node[144].veinsmobility 	stopTime 	25200.2
scalar MyScenario.node[144].veinsmobility 	minSpeed 	28.038032497107
scalar MyScenario.node[144].veinsmobility 	maxSpeed 	28.038032497107
scalar MyScenario.node[144].veinsmobility 	totalDistance 	2.8004385533897
scalar MyScenario.node[144].veinsmobility 	totalCO2Emission 	0
scalar MyScenario.node[178].appl 	generatedWSMs 	0
scalar MyScenario.node[178].appl 	receivedWSMs 	0
scalar MyScenario.node[178].appl 	generatedBSMs 	0
scalar MyScenario.node[178].appl 	receivedBSMs 	15
scalar MyScenario.node[178].appl 	generatedWSAs 	0
scalar MyScenario.node[178].appl 	receivedWSAs 	0
scalar MyScenario.node[178].nic.phy80211p 	busyTime 	0.00312
scalar MyScenario.node[178].nic.mac1609_4 	ReceivedUnicastPackets 	0
scalar MyScenario.node[178].nic.mac1609_4 	ReceivedBroadcasts 	15
scalar MyScenario.node[178].nic.mac1609_4 	SentPackets 	0
scalar MyScenario.node[178].nic.mac1609_4 	SNIRLostPackets 	0
scalar MyScenario.node[178].nic.mac1609_4 	RXTXLostPackets 	0
scalar MyScenario.node[178].nic.mac1609_4 	TotalLostPackets 	0
scalar MyScenario.node[178].nic.mac1609_4 	DroppedPacketsInMac 	0
scalar MyScenario.node[178].nic.mac1609_4 	TooLittleTime 	0
scalar MyScenario.node[178].nic.mac1609_4 	TimesIntoBackoff 	0
scalar MyScenario.node[178].nic.mac1609_4 	SlotsBackoff 	0
scalar MyScenario.node[178].nic.mac1609_4 	NumInternalContention 	0
scalar MyScenario.node[178].nic.mac1609_4 	totalBusyTime 	0.00156
scalar MyScenario.node[178].veinsmobility 	startTime 	25200
scalar MyScenario.node[178].veinsmobility 	totalTime 	0.4
scalar MyScenario.node[178].veinsmobility 	stopTime 	25200.5
scalar MyScenario.node[178].veinsmobility 	minSpeed 	27.320757726059
scalar MyScenario.node[178].veinsmobility 	maxSpeed 	27.617212003009
scalar MyScenario.node[178].veinsmobility 	totalDistance 	10.986087092834
scalar MyScenario.node[178].veinsmobility 	totalCO2Emission 	0.40900142964425
scalar MyScenario.node[103].appl 	generatedWSMs 	0
scalar MyScenario.node[103].appl 	receivedWSMs 	0
scalar MyScenario.node[103].appl 	generatedBSMs 	0
scalar MyScenario.node[103].appl 	receivedBSMs 	3
scalar MyScenario.node[103].appl 	generatedWSAs 	0
scalar MyScenario.node[103].appl 	receivedWSAs 	0
scalar MyScenario.node[103].nic.phy80211p 	busyTime 	0.00044571428571429
scalar MyScenario.node[103].nic.mac1609_4 	ReceivedUnicastPackets 	0
scalar MyScenario.node[103].nic.mac1609_4 	ReceivedBroadcasts 	3
scalar MyScenario.node[103].nic.mac1609_4 	SentPackets 	0
scalar MyScenario.node[103].nic.mac1609_4 	SNIRLostPackets 	0
scalar MyScenario.node[103].nic.mac1609_4 	RXTXLostPackets 	0
scalar MyScenario.node[103].nic.mac1609_4 	TotalLostPackets 	0
scalar MyScenario.node[103].nic.mac1609_4 	DroppedPacketsInMac 	0
scalar MyScenario.node[103].nic.mac1609_4 	TooLittleTime 	0
scalar MyScenario.node[103].nic.mac1609_4 	TimesIntoBackoff 	0
scalar MyScenario.node[103].nic.mac1609_4 	SlotsBackoff 	0
scalar MyScenario.node[103].nic.mac1609_4 	NumInternalContention 	0
scalar MyScenario.node[103].nic.mac1609_4 	totalBusyTime 	0.000312
scalar MyScenario.node[103].veinsmobility 	startTime 	25200
scalar MyScenario.node[103].veinsmobility 	totalTime 	0.6
scalar MyScenario.node[103].veinsmobility 	stopTime 	25200.7
scalar MyScenario.node[103].veinsmobility 	minSpeed 	12.048001802802
scalar MyScenario.node[103].veinsmobility 	maxSpeed 	13.65615601248
scalar MyScenario.node[103].veinsmobility 	totalDistance 	7.7232853289335
scalar MyScenario.node[103].veinsmobility 	totalCO2Emission 	0.4865
scalar MyScenario.node[133].appl 	generatedWSMs 	0
scalar MyScenario.node[133].appl 	receivedWSMs 	0
scalar MyScenario.node[133].appl 	generatedBSMs 	1
scalar MyScenario.node[133].appl 	receivedBSMs 	10
scalar MyScenario.node[133].appl 	generatedWSAs 	0
scalar MyScenario.node[133].appl 	receivedWSAs 	0
scalar MyScenario.node[133].nic.phy80211p 	busyTime 	0.0014857142857143
scalar MyScenario.node[133].nic.mac1609_4 	ReceivedUnicastPackets 	0
scalar MyScenario.node[133].nic.mac1609_4 	ReceivedBroadcasts 	10
scalar MyScenario.node[133].nic.mac1609_4 	SentPackets 	1
scalar MyScenario.node[133].nic.mac1609_4 	SNIRLostPackets 	0
scalar MyScenario.node[133].nic.mac1609_4 	RXTXLostPackets 	0
scalar MyScenario.node[133].nic.mac1609_4 	TotalLostPackets 	0
scalar MyScenario.node[133].nic.mac1609_4 	DroppedPacketsInMac 	0
scalar MyScenario.node[133].nic.mac1609_4 	TooLittleTime 	0
scalar MyScenario.node[133].nic.mac1609_4 	TimesIntoBackoff 	1
scalar MyScenario.node[133].nic.mac1609_4 	SlotsBackoff 	1
scalar MyScenario.node[133].nic.mac1609_4 	NumInternalContention 	0
scalar MyScenario.node[133].nic.mac1609_4 	totalBusyTime 	0.001145
scalar MyScenario.node[133].veinsmobility 	startTime 	25200
scalar MyScenario.node[133].veinsmobility 	totalTime 	0.6
scalar MyScenario.node[133].veinsmobility 	stopTime 	25200.7
scalar MyScenario.node[133].veinsmobility 	minSpeed 	34.224651252099
scalar MyScenario.node[133].veinsmobility 	maxSpeed 	34.32779893051
scalar MyScenario.node[133].veinsmobility 	totalDistance 	20.583634382267
scalar MyScenario.node[133].veinsmobility 	totalCO2Emission 	2.9508063059433
scalar MyScenario.node[0].appl 	generatedWSMs 	0
scalar MyScenario.node[0].appl 	receivedWSMs 	0
scalar MyScenario.node[0].appl 	generatedBSMs 	2
scalar MyScenario.node[0].appl 	receivedBSMs 	22
scalar MyScenario.node[0].appl 	generatedWSAs 	0
scalar MyScenario.node[0].appl 	receivedWSAs 	0
scalar MyScenario.node[0].nic.phy80211p 	busyTime 	0.0016342857142857
scalar MyScenario.node[0].nic.mac1609_4 	ReceivedUnicastPackets 	0
scalar MyScenario.node[0].nic.mac1609_4 	ReceivedBroadcasts 	22
scalar MyScenario.node[0].nic.mac1609_4 	SentPackets 	2
scalar MyScenario.node[0].nic.mac1609_4 	SNIRLostPackets 	0
scalar MyScenario.node[0].nic.mac1609_4 	RXTXLostPackets 	0
scalar MyScenario.node[0].nic.mac1609_4 	TotalLostPackets 	0
scalar MyScenario.node[0].nic.mac1609_4 	DroppedPacketsInMac 	0
scalar MyScenario.node[0].nic.mac1609_4 	TooLittleTime 	0
scalar MyScenario.node[0].nic.mac1609_4 	TimesIntoBackoff 	2
scalar MyScenario.node[0].nic.mac1609_4 	SlotsBackoff 	4
scalar MyScenario.node[0].nic.mac1609_4 	NumInternalContention 	0
scalar MyScenario.node[0].nic.mac1609_4 	totalBusyTime 	0.002498
scalar MyScenario.node[0].veinsmobility 	startTime 	25200
scalar MyScenario.node[0].veinsmobility 	totalTime 	1.3
scalar MyScenario.node[0].veinsmobility 	stopTime 	25201.4
scalar MyScenario.node[0].veinsmobility 	minSpeed 	27.747224223796
scalar MyScenario.node[0].veinsmobility 	maxSpeed 	28.074582729448
scalar MyScenario.node[0].veinsmobility 	totalDistance 	36.24299721885
scalar MyScenario.node[0].veinsmobility 	totalCO2Emission 	8.0871639673794
scalar MyScenario.node[9].appl 	generatedWSMs 	0
scalar MyScenario.node[9].appl 	receivedWSMs 	0
scalar MyScenario.node[9].appl 	generatedBSMs 	2
scalar MyScenario.node[9].appl 	receivedBSMs 	44
scalar MyScenario.node[9].appl 	generatedWSAs 	0
scalar MyScenario.node[9].appl 	receivedWSAs 	0
scalar MyScenario.node[9].nic.phy80211p 	busyTime 	0.0030506666666667
scalar MyScenario.node[9].nic.mac1609_4 	ReceivedUnicastPackets 	0
scalar MyScenario.node[9].nic.mac1609_4 	ReceivedBroadcasts 	44
scalar MyScenario.node[9].nic.mac1609_4 	SentPackets 	2
scalar MyScenario.node[9].nic.mac1609_4 	SNIRLostPackets 	0
scalar MyScenario.node[9].nic.mac1609_4 	RXTXLostPackets 	0
scalar MyScenario.node[9].nic.mac1609_4 	TotalLostPackets 	0
scalar MyScenario.node[9].nic.mac1609_4 	DroppedPacketsInMac 	0
scalar MyScenario.node[9].nic.mac1609_4 	TooLittleTime 	0
scalar MyScenario.node[9].nic.mac1609_4 	TimesIntoBackoff 	2
scalar MyScenario.node[9].nic.mac1609_4 	SlotsBackoff 	3
scalar MyScenario.node[9].nic.mac1609_4 	NumInternalContention 	0
scalar MyScenario.node[9].nic.mac1609_4 	totalBusyTime 	0.004786
scalar MyScenario.node[9].veinsmobility 	startTime 	25200
scalar MyScenario.node[9].veinsmobility 	totalTime 	1.4
scalar MyScenario.node[9].veinsmobility 	stopTime 	25201.5
scalar MyScenario.node[9].veinsmobility 	minSpeed 	29.88877979273
scalar MyScenario.node[9].veinsmobility 	maxSpeed 	29.996262276694
scalar MyScenario.node[9].veinsmobility 	totalDistance 	41.960112381629
scalar MyScenario.node[9].veinsmobility 	totalCO2Emission 	6.4094718045125
scalar MyScenario.node[4].appl 	generatedWSMs 	0
scalar MyScenario.node[4].appl 	receivedWSMs 	0
scalar MyScenario.node[4].appl 	generatedBSMs 	2
scalar MyScenario.node[4].appl 	receivedBSMs 	31
scalar MyScenario.node[4].appl 	generatedWSAs 	0
scalar MyScenario.node[4].appl 	receivedWSAs 	0
scalar MyScenario.node[4].nic.phy80211p 	busyTime 	0.001612
scalar MyScenario.node[4].nic.mac1609_4 	ReceivedUnicastPackets 	0
scalar MyScenario.node[4].nic.mac1609_4 	ReceivedBroadcasts 	31
scalar MyScenario.node[4].nic.mac1609_4 	SentPackets 	2
scalar MyScenario.node[4].nic.mac1609_4 	SNIRLostPackets 	0
scalar MyScenario.node[4].nic.mac1609_4 	RXTXLostPackets 	0
scalar MyScenario.node[4].nic.mac1609_4 	TotalLostPackets 	0
scalar MyScenario.node[4].nic.mac1609_4 	DroppedPacketsInMac 	0
scalar MyScenario.node[4].nic.mac1609_4 	TooLittleTime 	0
scalar MyScenario.node[4].nic.mac1609_4 	TimesIntoBackoff 	2
scalar MyScenario.node[4].nic.mac1609_4 	SlotsBackoff 	2
scalar MyScenario.node[4].nic.mac1609_4 	NumInternalContention 	0
scalar MyScenario.node[4].nic.mac1609_4 	totalBusyTime 	0.003434
scalar MyScenario.node[4].veinsmobility 	startTime 	25200
scalar MyScenario.node[4].veinsmobility 	totalTime 	1.9
scalar MyScenario.node[4].veinsmobility 	stopTime 	25202
scalar MyScenario.node[4].veinsmobility 	minSpeed 	34.298672100354
scalar MyScenario.node[4].veinsmobility 	maxSpeed 	34.418993262313
scalar MyScenario.node[4].veinsmobility 	totalDistance 	65.302416668346
scalar MyScenario.node[4].veinsmobility 	totalCO2Emission 	11.519586162614
scalar MyScenario.node[10].appl 	generatedWSMs 	0
scalar MyScenario.node[10].appl 	receivedWSMs 	0
scalar MyScenario.node[10].appl 	generatedBSMs 	3
scalar MyScenario.node[10].appl 	receivedBSMs 	87
scalar MyScenario.node[10].appl 	generatedWSAs 	0
scalar MyScenario.node[10].appl 	receivedWSAs 	0
scalar MyScenario.node[10].nic.phy80211p 	busyTime 	0.0034281481481481
scalar MyScenario.node[10].nic.mac1609_4 	ReceivedUnicastPackets 	0
scalar MyScenario.node[10].nic.mac1609_4 	ReceivedBroadcasts 	87
scalar MyScenario.node[10].nic.mac1609_4 	SentPackets 	3
scalar MyScenario.node[10].nic.mac1609_4 	SNIRLostPackets 	2
scalar MyScenario.node[10].nic.mac1609_4 	RXTXLostPackets 	0
scalar MyScenario.node[10].nic.mac1609_4 	TotalLostPackets 	2
scalar MyScenario.node[10].nic.mac1609_4 	DroppedPacketsInMac 	0
scalar MyScenario.node[10].nic.mac1609_4 	TooLittleTime 	0
scalar MyScenario.node[10].nic.mac1609_4 	TimesIntoBackoff 	3
scalar MyScenario.node[10].nic.mac1609_4 	SlotsBackoff 	5
scalar MyScenario.node[10].nic.mac1609_4 	NumInternalContention 	0
scalar MyScenario.node[10].nic.mac1609_4 	totalBusyTime 	0.009571
scalar MyScenario.node[10].veinsmobility 	startTime 	25200
scalar MyScenario.node[10].veinsmobility 	totalTime 	2.6
scalar MyScenario.node[10].veinsmobility 	stopTime 	25202.7
scalar MyScenario.node[10].veinsmobility 	minSpeed 	29.83398731508
scalar MyScenario.node[10].veinsmobility 	maxSpeed 	30.064473135445
scalar MyScenario.node[10].veinsmobility 	totalDistance 	77.93661927889
scalar MyScenario.node[10].veinsmobility 	totalCO2Emission 	14.301406830834
scalar MyScenario.node[7].appl 	generatedWSMs 	0
scalar MyScenario.node[7].appl 	receivedWSMs 	0
scalar MyScenario.node[7].appl 	generatedBSMs 	2
scalar MyScenario.node[7].appl 	receivedBSMs 	47
scalar MyScenario.node[7].appl 	generatedWSAs 	0
scalar MyScenario.node[7].appl 	receivedWSAs 	0
scalar MyScenario.node[7].nic.phy80211p 	busyTime 	0.0017457142857143
scalar MyScenario.node[7].nic.mac1609_4 	ReceivedUnicastPackets 	0
scalar MyScenario.node[7].nic.mac1609_4 	ReceivedBroadcasts 	47
scalar MyScenario.node[7].nic.mac1609_4 	SentPackets 	2
scalar MyScenario.node[7].nic.mac1609_4 	SNIRLostPackets 	0
scalar MyScenario.node[7].nic.mac1609_4 	RXTXLostPackets 	0
scalar MyScenario.node[7].nic.mac1609_4 	TotalLostPackets 	0
scalar MyScenario.node[7].nic.mac1609_4 	DroppedPacketsInMac 	0
scalar MyScenario.node[7].nic.mac1609_4 	TooLittleTime 	0
scalar MyScenario.node[7].nic.mac1609_4 	TimesIntoBackoff 	2
scalar MyScenario.node[7].nic.mac1609_4 	SlotsBackoff 	5
scalar MyScenario.node[7].nic.mac1609_4 	NumInternalContention 	0
scalar MyScenario.node[7].nic.mac1609_4 	totalBusyTime 	0.005098
scalar MyScenario.node[7].veinsmobility 	startTime 	25200
scalar MyScenario.node[7].veinsmobility 	totalTime 	2.7
scalar MyScenario.node[7].veinsmobility 	stopTime 	25202.8
scalar MyScenario.node[7].veinsmobility 	minSpeed 	28.380100141294
scalar MyScenario.node[7].veinsmobility 	maxSpeed 	28.571957455019
scalar MyScenario.node[7].veinsmobility 	totalDistance 	76.808070100333
scalar MyScenario.node[7].veinsmobility 	totalCO2Emission 	15.966760289511
scalar MyScenario.node[5].appl 	generatedWSMs 	0
scalar MyScenario.node[5].appl 	receivedWSMs 	0
scalar MyScenario.node[5].appl 	generatedBSMs 	4
scalar MyScenario.node[5].appl 	receivedBSMs 	56
scalar MyScenario.node[5].appl 	generatedWSAs 	0
scalar MyScenario.node[5].appl 	receivedWSAs 	0
scalar MyScenario.node[5].nic.phy80211p 	busyTime 	0.0017129411764706
scalar MyScenario.node[5].nic.mac1609_4 	ReceivedUnicastPackets 	0
scalar MyScenario.node[5].nic.mac1609_4 	ReceivedBroadcasts 	56
scalar MyScenario.node[5].nic.mac1609_4 	SentPackets 	4
scalar MyScenario.node[5].nic.mac1609_4 	SNIRLostPackets 	0
scalar MyScenario.node[5].nic.mac1609_4 	RXTXLostPackets 	0
scalar MyScenario.node[5].nic.mac1609_4 	TotalLostPackets 	0
scalar MyScenario.node[5].nic.mac1609_4 	DroppedPacketsInMac 	0
scalar MyScenario.node[5].nic.mac1609_4 	TooLittleTime 	0
scalar MyScenario.node[5].nic.mac1609_4 	TimesIntoBackoff 	4
scalar MyScenario.node[5].nic.mac1609_4 	SlotsBackoff 	2
scalar MyScenario.node[5].nic.mac1609_4 	NumInternalContention 	0
scalar MyScenario.node[5].nic.mac1609_4 	totalBusyTime 	0.006244
scalar MyScenario.node[5].veinsmobility 	startTime 	25200
scalar MyScenario.node[5].veinsmobility 	totalTime 	3.3
scalar MyScenario.node[5].veinsmobility 	stopTime 	25203.4
scalar MyScenario.node[5].veinsmobility 	minSpeed 	34.56054367989
scalar MyScenario.node[5].veinsmobility 	maxSpeed 	34.691342372486
scalar MyScenario.node[5].veinsmobility 	totalDistance 	114.29003779302
scalar MyScenario.node[5].veinsmobility 	totalCO2Emission 	21.583789552528
scalar MyScenario.node[29].appl 	generatedWSMs 	0
scalar MyScenario.node[29].appl 	receivedWSMs 	0
scalar MyScenario.node[29].appl 	generatedBSMs 	4
scalar MyScenario.node[29].appl 	receivedBSMs 	8
scalar MyScenario.node[29].appl 	generatedWSAs 	0
scalar MyScenario.node[29].appl 	receivedWSAs 	0
scalar MyScenario.node[29].nic.phy80211p 	busyTime 	0.00022486486486486
scalar MyScenario.node[29].nic.mac1609_4 	ReceivedUnicastPackets 	0
scalar MyScenario.node[29].nic.mac1609_4 	ReceivedBroadcasts 	8
scalar MyScenario.node[29].nic.mac1609_4 	SentPackets 	4
scalar MyScenario.node[29].nic.mac1609_4 	SNIRLostPackets 	0
scalar MyScenario.node[29].nic.mac1609_4 	RXTXLostPackets 	0
scalar MyScenario.node[29].nic.mac1609_4 	TotalLostPackets 	0
scalar MyScenario.node[29].nic.mac1609_4 	DroppedPacketsInMac 	0
scalar MyScenario.node[29].nic.mac1609_4 	TooLittleTime 	0
scalar MyScenario.node[29].nic.mac1609_4 	TimesIntoBackoff 	4
scalar MyScenario.node[29].nic.mac1609_4 	SlotsBackoff 	9
scalar MyScenario.node[29].nic.mac1609_4 	NumInternalContention 	0
scalar MyScenario.node[29].nic.mac1609_4 	totalBusyTime 	0.001252
scalar MyScenario.node[29].veinsmobility 	startTime 	25200
scalar MyScenario.node[29].veinsmobility 	totalTime 	3.6
scalar MyScenario.node[29].veinsmobility 	stopTime 	25203.7
scalar MyScenario.node[29].veinsmobility 	minSpeed 	8.8320784081808
scalar MyScenario.node[29].veinsmobility 	maxSpeed 	14.216988475435
scalar MyScenario.node[29].veinsmobility 	totalDistance 	45.099504442444
scalar MyScenario.node[29].veinsmobility 	totalCO2Emission 	5.3616486235105
scalar MyScenario.node[180].appl 	generatedWSMs 	0
scalar MyScenario.node[180].appl 	receivedWSMs 	0
scalar MyScenario.node[180].appl 	generatedBSMs 	4
scalar MyScenario.node[180].appl 	receivedBSMs 	113
scalar MyScenario.node[180].appl 	generatedWSAs 	0
scalar MyScenario.node[180].appl 	receivedWSAs 	0
scalar MyScenario.node[180].nic.phy80211p 	busyTime 	0.00312
scalar MyScenario.node[180].nic.mac1609_4 	ReceivedUnicastPackets 	0
scalar MyScenario.node[180].nic.mac1609_4 	ReceivedBroadcasts 	113
scalar MyScenario.node[180].nic.mac1609_4 	SentPackets 	4
scalar MyScenario.node[180].nic.mac1609_4 	SNIRLostPackets 	4
scalar MyScenario.node[180].nic.mac1609_4 	RXTXLostPackets 	0
scalar MyScenario.node[180].nic.mac1609_4 	TotalLostPackets 	4
scalar MyScenario.node[180].nic.mac1609_4 	DroppedPacketsInMac 	0
scalar MyScenario.node[180].nic.mac1609_4 	TooLittleTime 	0
scalar MyScenario.node[180].nic.mac1609_4 	TimesIntoBackoff 	4
scalar MyScenario.node[180].nic.mac1609_4 	SlotsBackoff 	8
scalar MyScenario.node[180].nic.mac1609_4 	NumInternalContention 	0
scalar MyScenario.node[180].nic.mac1609_4 	totalBusyTime 	0.012484
scalar MyScenario.node[180].veinsmobility 	startTime 	25200
scalar MyScenario.node[180].veinsmobility 	totalTime 	3.8
scalar MyScenario.node[180].veinsmobility 	stopTime 	25203.9
scalar MyScenario.node[180].veinsmobility 	minSpeed 	29.780007225456
scalar MyScenario.node[180].veinsmobility 	maxSpeed 	30.065030783249
scalar MyScenario.node[180].veinsmobility 	totalDistance 	113.89486894023
scalar MyScenario.node[180].veinsmobility 	totalCO2Emission 	21.436207762834
scalar MyScenario.node[8].appl 	generatedWSMs 	0
scalar MyScenario.node[8].appl 	receivedWSMs 	0
scalar MyScenario.node[8].appl 	generatedBSMs 	4
scalar MyScenario.node[8].appl 	receivedBSMs 	61
scalar MyScenario.node[8].appl 	generatedWSAs 	0
scalar MyScenario.node[8].appl 	receivedWSAs 	0
scalar MyScenario.node[8].nic.phy80211p 	busyTime 	0.001612
scalar MyScenario.node[8].nic.mac1609_4 	ReceivedUnicastPackets 	0
scalar MyScenario.node[8].nic.mac1609_4 	ReceivedBroadcasts 	61
scalar MyScenario.node[8].nic.mac1609_4 	SentPackets 	4
scalar MyScenario.node[8].nic.mac1609_4 	SNIRLostPackets 	1
scalar MyScenario.node[8].nic.mac1609_4 	RXTXLostPackets 	0
scalar MyScenario.node[8].nic.mac1609_4 	TotalLostPackets 	1
scalar MyScenario.node[8].nic.mac1609_4 	DroppedPacketsInMac 	0
scalar MyScenario.node[8].nic.mac1609_4 	TooLittleTime 	0
scalar MyScenario.node[8].nic.mac1609_4 	TimesIntoBackoff 	4
scalar MyScenario.node[8].nic.mac1609_4 	SlotsBackoff 	4
scalar MyScenario.node[8].nic.mac1609_4 	NumInternalContention 	0
scalar MyScenario.node[8].nic.mac1609_4 	totalBusyTime 	0.006868
scalar MyScenario.node[8].veinsmobility 	startTime 	25200
scalar MyScenario.node[8].veinsmobility 	totalTime 	3.9
scalar MyScenario.node[8].veinsmobility 	stopTime 	25204
scalar MyScenario.node[8].veinsmobility 	minSpeed 	28.419826516026
scalar MyScenario.node[8].veinsmobility 	maxSpeed 	28.645559734117
scalar MyScenario.node[8].veinsmobility 	totalDistance 	111.14264137251
scalar MyScenario.node[8].veinsmobility 	totalCO2Emission 	23.104908597692
scalar MyScenario.node[82].appl 	generatedWSMs 	0
scalar MyScenario.node[82].appl 	receivedWSMs 	0
scalar MyScenario.node[82].appl 	generatedBSMs 	4
scalar MyScenario.node[82].appl 	receivedBSMs 	133
scalar MyScenario.node[82].appl 	generatedWSAs 	0
scalar MyScenario.node[82].appl 	receivedWSAs 	0
scalar MyScenario.node[82].nic.phy80211p 	busyTime 	0.003458
scalar MyScenario.node[82].nic.mac1609_4 	ReceivedUnicastPackets 	0
scalar MyScenario.node[82].nic.mac1609_4 	ReceivedBroadcasts 	133
scalar MyScenario.node[82].nic.mac1609_4 	SentPackets 	4
scalar MyScenario.node[82].nic.mac1609_4 	SNIRLostPackets 	0
scalar MyScenario.node[82].nic.mac1609_4 	RXTXLostPackets 	0
scalar MyScenario.node[82].nic.mac1609_4 	TotalLostPackets 	0
scalar MyScenario.node[82].nic.mac1609_4 	DroppedPacketsInMac 	0
scalar MyScenario.node[82].nic.mac1609_4 	TooLittleTime 	0
scalar MyScenario.node[82].nic.mac1609_4 	TimesIntoBackoff 	4
scalar MyScenario.node[82].nic.mac1609_4 	SlotsBackoff 	4
scalar MyScenario.node[82].nic.mac1609_4 	NumInternalContention 	0
scalar MyScenario.node[82].nic.mac1609_4 	totalBusyTime 	0.014252
scalar MyScenario.node[82].veinsmobility 	startTime 	25200
scalar MyScenario.node[82].veinsmobility 	totalTime 	3.9
scalar MyScenario.node[82].veinsmobility 	stopTime 	25204
scalar MyScenario.node[82].veinsmobility 	minSpeed 	2.4762125502691
scalar MyScenario.node[82].veinsmobility 	maxSpeed 	7.426293429264
scalar MyScenario.node[82].veinsmobility 	totalDistance 	16.925584109664
scalar MyScenario.node[82].veinsmobility 	totalCO2Emission 	11.05642483476
scalar MyScenario.node[160].appl 	generatedWSMs 	0
scalar MyScenario.node[160].appl 	receivedWSMs 	0
scalar MyScenario.node[160].appl 	generatedBSMs 	4
scalar MyScenario.node[160].appl 	receivedBSMs 	70
scalar MyScenario.node[160].appl 	generatedWSAs 	0
scalar MyScenario.node[160].appl 	receivedWSAs 	0
scalar MyScenario.node[160].nic.phy80211p 	busyTime 	0.0015826086956522
scalar MyScenario.node[160].nic.mac1609_4 	ReceivedUnicastPackets 	0
scalar MyScenario.node[160].nic.mac1609_4 	ReceivedBroadcasts 	70
scalar MyScenario.node[160].nic.mac1609_4 	SentPackets 	4
scalar MyScenario.node[160].nic.mac1609_4 	SNIRLostPackets 	0
scalar MyScenario.node[160].nic.mac1609_4 	RXTXLostPackets 	0
scalar MyScenario.node[160].nic.mac1609_4 	TotalLostPackets 	0
scalar MyScenario.node[160].nic.mac1609_4 	DroppedPacketsInMac 	0
scalar MyScenario.node[160].nic.mac1609_4 	TooLittleTime 	0
scalar MyScenario.node[160].nic.mac1609_4 	TimesIntoBackoff 	4
scalar MyScenario.node[160].nic.mac1609_4 	SlotsBackoff 	2
scalar MyScenario.node[160].nic.mac1609_4 	NumInternalContention 	0
scalar MyScenario.node[160].nic.mac1609_4 	totalBusyTime 	0.0077
scalar MyScenario.node[160].veinsmobility 	startTime 	25200
scalar MyScenario.node[160].veinsmobility 	totalTime 	4.5
scalar MyScenario.node[160].veinsmobility 	stopTime 	25204.6
scalar MyScenario.node[160].veinsmobility 	minSpeed 	34.581350803384
scalar MyScenario.node[160].veinsmobility 	maxSpeed 	34.918326866369
scalar MyScenario.node[160].veinsmobility 	totalDistance 	156.30732212258
scalar MyScenario.node[160].veinsmobility 	totalCO2Emission 	40.848659402485
scalar MyScenario.node[11].appl 	generatedWSMs 	0
scalar MyScenario.node[11].appl 	receivedWSMs 	0
scalar MyScenario.node[11].appl 	generatedBSMs 	5
scalar MyScenario.node[11].appl 	receivedBSMs 	148
scalar MyScenario.node[11].appl 	generatedWSAs 	0
scalar MyScenario.node[11].appl 	receivedWSAs 	0
scalar MyScenario.node[11].nic.phy80211p 	busyTime 	0.0030792156862745
scalar MyScenario.node[11].nic.mac1609_4 	ReceivedUnicastPackets 	0
scalar MyScenario.node[11].nic.mac1609_4 	ReceivedBroadcasts 	148
scalar MyScenario.node[11].nic.mac1609_4 	SentPackets 	5
scalar MyScenario.node[11].nic.mac1609_4 	SNIRLostPackets 	3
scalar MyScenario.node[11].nic.mac1609_4 	RXTXLostPackets 	0
scalar MyScenario.node[11].nic.mac1609_4 	TotalLostPackets 	3
scalar MyScenario.node[11].nic.mac1609_4 	DroppedPacketsInMac 	0
scalar MyScenario.node[11].nic.mac1609_4 	TooLittleTime 	0
scalar MyScenario.node[11].nic.mac1609_4 	TimesIntoBackoff 	5
scalar MyScenario.node[11].nic.mac1609_4 	SlotsBackoff 	6
scalar MyScenario.node[11].nic.mac1609_4 	NumInternalContention 	0
scalar MyScenario.node[11].nic.mac1609_4 	totalBusyTime 	0.016125
scalar MyScenario.node[11].veinsmobility 	startTime 	25200
scalar MyScenario.node[11].veinsmobility 	totalTime 	5
scalar MyScenario.node[11].veinsmobility 	stopTime 	25205.1
scalar MyScenario.node[11].veinsmobility 	minSpeed 	29.827571666649
scalar MyScenario.node[11].veinsmobility 	maxSpeed 	30.091010850818
scalar MyScenario.node[11].veinsmobility 	totalDistance 	149.86399787404
scalar MyScenario.node[11].veinsmobility 	totalCO2Emission 	29.743511478239
scalar MyScenario.node[102].appl 	generatedWSMs 	0
scalar MyScenario.node[102].appl 	receivedWSMs 	0
scalar MyScenario.node[102].appl 	generatedBSMs 	6
scalar MyScenario.node[102].appl 	receivedBSMs 	75
scalar MyScenario.node[102].appl 	generatedWSAs 	0
scalar MyScenario.node[102].appl 	receivedWSAs 	0
scalar MyScenario.node[102].nic.phy80211p 	busyTime 	0.0014716981132075
scalar MyScenario.node[102].nic.mac1609_4 	ReceivedUnicastPackets 	0
scalar MyScenario.node[102].nic.mac1609_4 	ReceivedBroadcasts 	75
scalar MyScenario.node[102].nic.mac1609_4 	SentPackets 	6
scalar MyScenario.node[102].nic.mac1609_4 	SNIRLostPackets 	0
scalar MyScenario.node[102].nic.mac1609_4 	RXTXLostPackets 	0
scalar MyScenario.node[102].nic.mac1609_4 	TotalLostPackets 	0
scalar MyScenario.node[102].nic.mac1609_4 	DroppedPacketsInMac 	0
scalar MyScenario.node[102].nic.mac1609_4 	TooLittleTime 	0
scalar MyScenario.node[102].nic.mac1609_4 	TimesIntoBackoff 	6
scalar MyScenario.node[102].nic.mac1609_4 	SlotsBackoff 	10
scalar MyScenario.node[102].nic.mac1609_4 	NumInternalContention 	0
scalar MyScenario.node[102].nic.mac1609_4 	totalBusyTime 	0.00843
scalar MyScenario.node[102].veinsmobility 	startTime 	25200
scalar MyScenario.node[102].veinsmobility 	totalTime 	5.2
scalar MyScenario.node[102].veinsmobility 	stopTime 	25205.3
scalar MyScenario.node[102].veinsmobility 	minSpeed 	28.46411693059
scalar MyScenario.node[102].veinsmobility 	maxSpeed 	28.768891410194
scalar MyScenario.node[102].veinsmobility 	totalDistance 	148.54971490549
scalar MyScenario.node[102].veinsmobility 	totalCO2Emission 	33.82441349252
scalar MyScenario.node[145].appl 	generatedWSMs 	0
scalar MyScenario.node[145].appl 	receivedWSMs 	0
scalar MyScenario.node[145].appl 	generatedBSMs 	5
scalar MyScenario.node[145].appl 	receivedBSMs 	182
scalar MyScenario.node[145].appl 	generatedWSAs 	0
scalar MyScenario.node[145].appl 	receivedWSAs 	0
scalar MyScenario.node[145].nic.phy80211p 	busyTime 	0.0034792727272727
scalar MyScenario.node[145].nic.mac1609_4 	ReceivedUnicastPackets 	0
scalar MyScenario.node[145].nic.mac1609_4 	ReceivedBroadcasts 	182
scalar MyScenario.node[145].nic.mac1609_4 	SentPackets 	5
scalar MyScenario.node[145].nic.mac1609_4 	SNIRLostPackets 	2
scalar MyScenario.node[145].nic.mac1609_4 	RXTXLostPackets 	0
scalar MyScenario.node[145].nic.mac1609_4 	TotalLostPackets 	2
scalar MyScenario.node[145].nic.mac1609_4 	DroppedPacketsInMac 	0
scalar MyScenario.node[145].nic.mac1609_4 	TooLittleTime 	0
scalar MyScenario.node[145].nic.mac1609_4 	TimesIntoBackoff 	5
scalar MyScenario.node[145].nic.mac1609_4 	SlotsBackoff 	5
scalar MyScenario.node[145].nic.mac1609_4 	NumInternalContention 	0
scalar MyScenario.node[145].nic.mac1609_4 	totalBusyTime 	0.019557
scalar MyScenario.node[145].veinsmobility 	startTime 	25200
scalar MyScenario.node[145].veinsmobility 	totalTime 	5.4
scalar MyScenario.node[145].veinsmobility 	stopTime 	25205.5
scalar MyScenario.node[145].veinsmobility 	minSpeed 	3.6822553321884
scalar MyScenario.node[145].veinsmobility 	maxSpeed 	9.0700608355112
scalar MyScenario.node[145].veinsmobility 	totalDistance 	29.11062481067
scalar MyScenario.node[145].veinsmobility 	totalCO2Emission 	15.540176455617
scalar MyScenario.node[138].appl 	generatedWSMs 	0
scalar MyScenario.node[138].appl 	receivedWSMs 	0
scalar MyScenario.node[138].appl 	generatedBSMs 	6
scalar MyScenario.node[138].appl 	receivedBSMs 	3
scalar MyScenario.node[138].appl 	generatedWSAs 	0
scalar MyScenario.node[138].appl 	receivedWSAs 	0
scalar MyScenario.node[138].nic.phy80211p 	busyTime 	5.2881355932203e-05
scalar MyScenario.node[138].nic.mac1609_4 	ReceivedUnicastPackets 	0
scalar MyScenario.node[138].nic.mac1609_4 	ReceivedBroadcasts 	3
scalar MyScenario.node[138].nic.mac1609_4 	SentPackets 	6
scalar MyScenario.node[138].nic.mac1609_4 	SNIRLostPackets 	0
scalar MyScenario.node[138].nic.mac1609_4 	RXTXLostPackets 	0
scalar MyScenario.node[138].nic.mac1609_4 	TotalLostPackets 	0
scalar MyScenario.node[138].nic.mac1609_4 	DroppedPacketsInMac 	0
scalar MyScenario.node[138].nic.mac1609_4 	TooLittleTime 	0
scalar MyScenario.node[138].nic.mac1609_4 	TimesIntoBackoff 	6
scalar MyScenario.node[138].nic.mac1609_4 	SlotsBackoff 	8
scalar MyScenario.node[138].nic.mac1609_4 	NumInternalContention 	0
scalar MyScenario.node[138].nic.mac1609_4 	totalBusyTime 	0.000942
scalar MyScenario.node[138].veinsmobility 	startTime 	25200
scalar MyScenario.node[138].veinsmobility 	totalTime 	5.8
scalar MyScenario.node[138].veinsmobility 	stopTime 	25205.9
scalar MyScenario.node[138].veinsmobility 	minSpeed 	5.0174330436003
scalar MyScenario.node[138].veinsmobility 	maxSpeed 	15.190069793677
scalar MyScenario.node[138].veinsmobility 	totalDistance 	64.853991641551
scalar MyScenario.node[138].veinsmobility 	totalCO2Emission 	35.485269499588
scalar MyScenario.node[39].appl 	generatedWSMs 	0
scalar MyScenario.node[39].appl 	receivedWSMs 	0
scalar MyScenario.node[39].appl 	generatedBSMs 	6
scalar MyScenario.node[39].appl 	receivedBSMs 	16
scalar MyScenario.node[39].appl 	generatedWSAs 	0
scalar MyScenario.node[39].appl 	receivedWSAs 	0
scalar MyScenario.node[39].nic.phy80211p 	busyTime 	0.00026838709677419
scalar MyScenario.node[39].nic.mac1609_4 	ReceivedUnicastPackets 	0
scalar MyScenario.node[39].nic.mac1609_4 	ReceivedBroadcasts 	16
scalar MyScenario.node[39].nic.mac1609_4 	SentPackets 	6
scalar MyScenario.node[39].nic.mac1609_4 	SNIRLostPackets 	0
scalar MyScenario.node[39].nic.mac1609_4 	RXTXLostPackets 	0
scalar MyScenario.node[39].nic.mac1609_4 	TotalLostPackets 	0
scalar MyScenario.node[39].nic.mac1609_4 	DroppedPacketsInMac 	0
scalar MyScenario.node[39].nic.mac1609_4 	TooLittleTime 	0
scalar MyScenario.node[39].nic.mac1609_4 	TimesIntoBackoff 	6
scalar MyScenario.node[39].nic.mac1609_4 	SlotsBackoff 	8
scalar MyScenario.node[39].nic.mac1609_4 	NumInternalContention 	0
scalar MyScenario.node[39].nic.mac1609_4 	totalBusyTime 	0.002294
scalar MyScenario.node[39].veinsmobility 	startTime 	25200
scalar MyScenario.node[39].veinsmobility 	totalTime 	6.1
scalar MyScenario.node[39].veinsmobility 	stopTime 	25206.2
scalar MyScenario.node[39].veinsmobility 	minSpeed 	3.3729197753928
scalar MyScenario.node[39].veinsmobility 	maxSpeed 	11.368805206821
scalar MyScenario.node[39].veinsmobility 	totalDistance 	42.994440785163
scalar MyScenario.node[39].veinsmobility 	totalCO2Emission 	22.431527620786
scalar MyScenario.node[1].appl 	generatedWSMs 	0
scalar MyScenario.node[1].appl 	receivedWSMs 	0
scalar MyScenario.node[1].appl 	generatedBSMs 	7
scalar MyScenario.node[1].appl 	receivedBSMs 	92
scalar MyScenario.node[1].appl 	generatedWSAs 	0
scalar MyScenario.node[1].appl 	receivedWSAs 	0
scalar MyScenario.node[1].nic.phy80211p 	busyTime 	0.001472
scalar MyScenario.node[1].nic.mac1609_4 	ReceivedUnicastPackets 	0
scalar MyScenario.node[1].nic.mac1609_4 	ReceivedBroadcasts 	92
scalar MyScenario.node[1].nic.mac1609_4 	SentPackets 	7
scalar MyScenario.node[1].nic.mac1609_4 	SNIRLostPackets 	0
scalar MyScenario.node[1].nic.mac1609_4 	RXTXLostPackets 	0
scalar MyScenario.node[1].nic.mac1609_4 	TotalLostPackets 	0
scalar MyScenario.node[1].nic.mac1609_4 	DroppedPacketsInMac 	0
scalar MyScenario.node[1].nic.mac1609_4 	TooLittleTime 	0
scalar MyScenario.node[1].nic.mac1609_4 	TimesIntoBackoff 	7
scalar MyScenario.node[1].nic.mac1609_4 	SlotsBackoff 	14
scalar MyScenario.node[1].nic.mac1609_4 	NumInternalContention 	0
scalar MyScenario.node[1].nic.mac1609_4 	totalBusyTime 	0.010303
scalar MyScenario.node[1].veinsmobility 	startTime 	25200
scalar MyScenario.node[1].veinsmobility 	totalTime 	6.4
scalar MyScenario.node[1].veinsmobility 	stopTime 	25206.5
scalar MyScenario.node[1].veinsmobility 	minSpeed 	28.489056353828
scalar MyScenario.node[1].veinsmobility 	maxSpeed 	28.874111367445
scalar MyScenario.node[1].veinsmobility 	totalDistance 	183.23571579285
scalar MyScenario.node[1].veinsmobility 	totalCO2Emission 	37.842703104301
scalar MyScenario.node[116].appl 	generatedWSMs 	0
scalar MyScenario.node[116].appl 	receivedWSMs 	0
scalar MyScenario.node[116].appl 	generatedBSMs 	7
scalar MyScenario.node[116].appl 	receivedBSMs 	214
scalar MyScenario.node[116].appl 	generatedWSAs 	0
scalar MyScenario.node[116].appl 	receivedWSAs 	0
scalar MyScenario.node[116].nic.phy80211p 	busyTime 	0.0033035294117647
scalar MyScenario.node[116].nic.mac1609_4 	ReceivedUnicastPackets 	0
scalar MyScenario.node[116].nic.mac1609_4 	ReceivedBroadcasts 	214
scalar MyScenario.node[116].nic.mac1609_4 	SentPackets 	7
scalar MyScenario.node[116].nic.mac1609_4 	SNIRLostPackets 	2
scalar MyScenario.node[116].nic.mac1609_4 	RXTXLostPackets 	0
scalar MyScenario.node[116].nic.mac1609_4 	TotalLostPackets 	2
scalar MyScenario.node[116].nic.mac1609_4 	DroppedPacketsInMac 	0
scalar MyScenario.node[116].nic.mac1609_4 	TooLittleTime 	0
scalar MyScenario.node[116].nic.mac1609_4 	TimesIntoBackoff 	7
scalar MyScenario.node[116].nic.mac1609_4 	SlotsBackoff 	6
scalar MyScenario.node[116].nic.mac1609_4 	NumInternalContention 	0
scalar MyScenario.node[116].nic.mac1609_4 	totalBusyTime 	0.023095
scalar MyScenario.node[116].veinsmobility 	startTime 	25200
scalar MyScenario.node[116].veinsmobility 	totalTime 	6.7
scalar MyScenario.node[116].veinsmobility 	stopTime 	25206.8
scalar MyScenario.node[116].veinsmobility 	minSpeed 	4.5347477321572
scalar MyScenario.node[116].veinsmobility 	maxSpeed 	10.309714682251
scalar MyScenario.node[116].veinsmobility 	totalDistance 	42.108840139838
scalar MyScenario.node[116].veinsmobility 	totalCO2Emission 	19.317013518663
scalar MyScenario.node[2].appl 	generatedWSMs 	0
scalar MyScenario.node[2].appl 	receivedWSMs 	0
scalar MyScenario.node[2].appl 	generatedBSMs 	8
scalar MyScenario.node[2].appl 	receivedBSMs 	112
scalar MyScenario.node[2].appl 	generatedWSAs 	0
scalar MyScenario.node[2].appl 	receivedWSAs 	0
scalar MyScenario.node[2].nic.phy80211p 	busyTime 	0.0015127272727273
scalar MyScenario.node[2].nic.mac1609_4 	ReceivedUnicastPackets 	0
scalar MyScenario.node[2].nic.mac1609_4 	ReceivedBroadcasts 	112
scalar MyScenario.node[2].nic.mac1609_4 	SentPackets 	8
scalar MyScenario.node[2].nic.mac1609_4 	SNIRLostPackets 	0
scalar MyScenario.node[2].nic.mac1609_4 	RXTXLostPackets 	0
scalar MyScenario.node[2].nic.mac1609_4 	TotalLostPackets 	0
scalar MyScenario.node[2].nic.mac1609_4 	DroppedPacketsInMac 	0
scalar MyScenario.node[2].nic.mac1609_4 	TooLittleTime 	0
scalar MyScenario.node[2].nic.mac1609_4 	TimesIntoBackoff 	8
scalar MyScenario.node[2].nic.mac1609_4 	SlotsBackoff 	18
scalar MyScenario.node[2].nic.mac1609_4 	NumInternalContention 	0
scalar MyScenario.node[2].nic.mac1609_4 	totalBusyTime 	0.012488
scalar MyScenario.node[2].veinsmobility 	startTime 	25200
scalar MyScenario.node[2].veinsmobility 	totalTime 	7.6
scalar MyScenario.node[2].veinsmobility 	stopTime 	25207.7
scalar MyScenario.node[2].veinsmobility 	minSpeed 	28.520892286912
scalar MyScenario.node[2].veinsmobility 	maxSpeed 	28.951005738859
scalar MyScenario.node[2].veinsmobility 	totalDistance 	218.13803396713
scalar MyScenario.node[2].veinsmobility 	totalCO2Emission 	45.70789870454
scalar MyScenario.node[107].appl 	generatedWSMs 	0
scalar MyScenario.node[107].appl 	receivedWSMs 	0
scalar MyScenario.node[107].appl 	generatedBSMs 	7
scalar MyScenario.node[107].appl 	receivedBSMs 	239
scalar MyScenario.node[107].appl 	generatedWSAs 	0
scalar MyScenario.node[107].appl 	receivedWSAs 	0
scalar MyScenario.node[107].nic.phy80211p 	busyTime 	0.00324
scalar MyScenario.node[107].nic.mac1609_4 	ReceivedUnicastPackets 	0
scalar MyScenario.node[107].nic.mac1609_4 	ReceivedBroadcasts 	239
scalar MyScenario.node[107].nic.mac1609_4 	SentPackets 	7
scalar MyScenario.node[107].nic.mac1609_4 	SNIRLostPackets 	4
scalar MyScenario.node[107].nic.mac1609_4 	RXTXLostPackets 	0
scalar MyScenario.node[107].nic.mac1609_4 	TotalLostPackets 	4
scalar MyScenario.node[107].nic.mac1609_4 	DroppedPacketsInMac 	0
scalar MyScenario.node[107].nic.mac1609_4 	TooLittleTime 	0
scalar MyScenario.node[107].nic.mac1609_4 	TimesIntoBackoff 	7
scalar MyScenario.node[107].nic.mac1609_4 	SlotsBackoff 	11
scalar MyScenario.node[107].nic.mac1609_4 	NumInternalContention 	0
scalar MyScenario.node[107].nic.mac1609_4 	totalBusyTime 	0.025799
scalar MyScenario.node[107].veinsmobility 	startTime 	25200
scalar MyScenario.node[107].veinsmobility 	totalTime 	7.7
scalar MyScenario.node[107].veinsmobility 	stopTime 	25207.8
scalar MyScenario.node[107].veinsmobility 	minSpeed 	30.741119668784
scalar MyScenario.node[107].veinsmobility 	maxSpeed 	30.865401531053
scalar MyScenario.node[107].veinsmobility 	totalDistance 	236.96628222
scalar MyScenario.node[107].veinsmobility 	totalCO2Emission 	40.099729027223
scalar MyScenario.node[13].appl 	generatedWSMs 	0
scalar MyScenario.node[13].appl 	receivedWSMs 	0
scalar MyScenario.node[13].appl 	generatedBSMs 	8
scalar MyScenario.node[13].appl 	receivedBSMs 	234
scalar MyScenario.node[13].appl 	generatedWSAs 	0
scalar MyScenario.node[13].appl 	receivedWSAs 	0
scalar MyScenario.node[13].nic.phy80211p 	busyTime 	0.002944578313253
scalar MyScenario.node[13].nic.mac1609_4 	ReceivedUnicastPackets 	0
scalar MyScenario.node[13].nic.mac1609_4 	ReceivedBroadcasts 	234
scalar MyScenario.node[13].nic.mac1609_4 	SentPackets 	8
scalar MyScenario.node[13].nic.mac1609_4 	SNIRLostPackets 	1
scalar MyScenario.node[13].nic.mac1609_4 	RXTXLostPackets 	0
scalar MyScenario.node[13].nic.mac1609_4 	TotalLostPackets 	1
scalar MyScenario.node[13].nic.mac1609_4 	DroppedPacketsInMac 	0
scalar MyScenario.node[13].nic.mac1609_4 	TooLittleTime 	0
scalar MyScenario.node[13].nic.mac1609_4 	TimesIntoBackoff 	8
scalar MyScenario.node[13].nic.mac1609_4 	SlotsBackoff 	13
scalar MyScenario.node[13].nic.mac1609_4 	NumInternalContention 	0
scalar MyScenario.node[13].nic.mac1609_4 	totalBusyTime 	0.02528
scalar MyScenario.node[13].veinsmobility 	startTime 	25200
scalar MyScenario.node[13].veinsmobility 	totalTime 	8.2
scalar MyScenario.node[13].veinsmobility 	stopTime 	25208.3
scalar MyScenario.node[13].veinsmobility 	minSpeed 	30.751031094807
scalar MyScenario.node[13].veinsmobility 	maxSpeed 	30.886080024255
scalar MyScenario.node[13].veinsmobility 	totalDistance 	252.67119297247
scalar MyScenario.node[13].veinsmobility 	totalCO2Emission 	44.765659071348
scalar MyScenario.node[148].appl 	generatedWSMs 	0
scalar MyScenario.node[148].appl 	receivedWSMs 	0
scalar MyScenario.node[148].appl 	generatedBSMs 	9
scalar MyScenario.node[148].appl 	receivedBSMs 	81
scalar MyScenario.node[148].appl 	generatedWSAs 	0
scalar MyScenario.node[148].appl 	receivedWSAs 	0
scalar MyScenario.node[148].nic.phy80211p 	busyTime 	0.00096827586206897
scalar MyScenario.node[148].nic.mac1609_4 	ReceivedUnicastPackets 	0
scalar MyScenario.node[148].nic.mac1609_4 	ReceivedBroadcasts 	81
scalar MyScenario.node[148].nic.mac1609_4 	SentPackets 	9
scalar MyScenario.node[148].nic.mac1609_4 	SNIRLostPackets 	0
scalar MyScenario.node[148].nic.mac1609_4 	RXTXLostPackets 	0
scalar MyScenario.node[148].nic.mac1609_4 	TotalLostPackets 	0
scalar MyScenario.node[148].nic.mac1609_4 	DroppedPacketsInMac 	0
scalar MyScenario.node[148].nic.mac1609_4 	TooLittleTime 	0
scalar MyScenario.node[148].nic.mac1609_4 	TimesIntoBackoff 	9
scalar MyScenario.node[148].nic.mac1609_4 	SlotsBackoff 	19
scalar MyScenario.node[148].nic.mac1609_4 	NumInternalContention 	0
scalar MyScenario.node[148].nic.mac1609_4 	totalBusyTime 	0.009369
scalar MyScenario.node[148].veinsmobility 	startTime 	25200
scalar MyScenario.node[148].veinsmobility 	totalTime 	8.6
scalar MyScenario.node[148].veinsmobility 	stopTime 	25208.7
scalar MyScenario.node[148].veinsmobility 	minSpeed 	0.71776342605432
scalar MyScenario.node[148].veinsmobility 	maxSpeed 	14.254802499578
scalar MyScenario.node[148].veinsmobility 	totalDistance 	81.669099828814
scalar MyScenario.node[148].veinsmobility 	totalCO2Emission 	40.226137619477
scalar MyScenario.node[184].appl 	generatedWSMs 	0
scalar MyScenario.node[184].appl 	receivedWSMs 	0
scalar MyScenario.node[184].appl 	generatedBSMs 	9
scalar MyScenario.node[184].appl 	receivedBSMs 	75
scalar MyScenario.node[184].appl 	generatedWSAs 	0
scalar MyScenario.node[184].appl 	receivedWSAs 	0
scalar MyScenario.node[184].nic.phy80211p 	busyTime 	0.00087640449438202
scalar MyScenario.node[184].nic.mac1609_4 	ReceivedUnicastPackets 	0
scalar MyScenario.node[184].nic.mac1609_4 	ReceivedBroadcasts 	75
scalar MyScenario.node[184].nic.mac1609_4 	SentPackets 	9
scalar MyScenario.node[184].nic.mac1609_4 	SNIRLostPackets 	0
scalar MyScenario.node[184].nic.mac1609_4 	RXTXLostPackets 	0
scalar MyScenario.node[184].nic.mac1609_4 	TotalLostPackets 	0
scalar MyScenario.node[184].nic.mac1609_4 	DroppedPacketsInMac 	0
scalar MyScenario.node[184].nic.mac1609_4 	TooLittleTime 	0
scalar MyScenario.node[184].nic.mac1609_4 	TimesIntoBackoff 	9
scalar MyScenario.node[184].nic.mac1609_4 	SlotsBackoff 	15
scalar MyScenario.node[184].nic.mac1609_4 	NumInternalContention 	0
scalar MyScenario.node[184].nic.mac1609_4 	totalBusyTime 	0.008745
scalar MyScenario.node[184].veinsmobility 	startTime 	25200
scalar MyScenario.node[184].veinsmobility 	totalTime 	8.8
scalar MyScenario.node[184].veinsmobility 	stopTime 	25208.9
scalar MyScenario.node[184].veinsmobility 	minSpeed 	14.431239206123
scalar MyScenario.node[184].veinsmobility 	maxSpeed 	14.569191152465
scalar MyScenario.node[184].veinsmobility 	totalDistance 	127.47894459461
scalar MyScenario.node[184].veinsmobility 	totalCO2Emission 	22.197186948309
scalar MyScenario.node[25].appl 	generatedWSMs 	0
scalar MyScenario.node[25].appl 	receivedWSMs 	0
scalar MyScenario.node[25].appl 	generatedBSMs 	9
scalar MyScenario.node[25].appl 	receivedBSMs 	69
scalar MyScenario.node[25].appl 	generatedWSAs 	0
scalar MyScenario.node[25].appl 	receivedWSAs 	0
scalar MyScenario.node[25].nic.phy80211p 	busyTime 	0.00079733333333333
scalar MyScenario.node[25].nic.mac1609_4 	ReceivedUnicastPackets 	0
scalar MyScenario.node[25].nic.mac1609_4 	ReceivedBroadcasts 	69
scalar MyScenario.node[25].nic.mac1609_4 	SentPackets 	9
scalar MyScenario.node[25].nic.mac1609_4 	SNIRLostPackets 	0
scalar MyScenario.node[25].nic.mac1609_4 	RXTXLostPackets 	0
scalar MyScenario.node[25].nic.mac1609_4 	TotalLostPackets 	0
scalar MyScenario.node[25].nic.mac1609_4 	DroppedPacketsInMac 	0
scalar MyScenario.node[25].nic.mac1609_4 	TooLittleTime 	0
scalar MyScenario.node[25].nic.mac1609_4 	TimesIntoBackoff 	9
scalar MyScenario.node[25].nic.mac1609_4 	SlotsBackoff 	12
scalar MyScenario.node[25].nic.mac1609_4 	NumInternalContention 	0
scalar MyScenario.node[25].nic.mac1609_4 	totalBusyTime 	0.008121
scalar MyScenario.node[25].veinsmobility 	startTime 	25200
scalar MyScenario.node[25].veinsmobility 	totalTime 	8.9
scalar MyScenario.node[25].veinsmobility 	stopTime 	25209
scalar MyScenario.node[25].veinsmobility 	minSpeed 	37.999483465616
scalar MyScenario.node[25].veinsmobility 	maxSpeed 	38.124788808334
scalar MyScenario.node[25].veinsmobility 	totalDistance 	338.72329708907
scalar MyScenario.node[25].veinsmobility 	totalCO2Emission 	71.331507983115
scalar MyScenario.node[49].appl 	generatedWSMs 	0
scalar MyScenario.node[49].appl 	receivedWSMs 	0
scalar MyScenario.node[49].appl 	generatedBSMs 	9
scalar MyScenario.node[49].appl 	receivedBSMs 	63
scalar MyScenario.node[49].appl 	generatedWSAs 	0
scalar MyScenario.node[49].appl 	receivedWSAs 	0
scalar MyScenario.node[49].nic.phy80211p 	busyTime 	0.00072
scalar MyScenario.node[49].nic.mac1609_4 	ReceivedUnicastPackets 	0
scalar MyScenario.node[49].nic.mac1609_4 	ReceivedBroadcasts 	63
scalar MyScenario.node[49].nic.mac1609_4 	SentPackets 	9
scalar MyScenario.node[49].nic.mac1609_4 	SNIRLostPackets 	0
scalar MyScenario.node[49].nic.mac1609_4 	RXTXLostPackets 	0
scalar MyScenario.node[49].nic.mac1609_4 	TotalLostPackets 	0
scalar MyScenario.node[49].nic.mac1609_4 	DroppedPacketsInMac 	0
scalar MyScenario.node[49].nic.mac1609_4 	TooLittleTime 	0
scalar MyScenario.node[49].nic.mac1609_4 	TimesIntoBackoff 	9
scalar MyScenario.node[49].nic.mac1609_4 	SlotsBackoff 	16
scalar MyScenario.node[49].nic.mac1609_4 	NumInternalContention 	0
scalar MyScenario.node[49].nic.mac1609_4 	totalBusyTime 	0.007497
scalar MyScenario.node[49].veinsmobility 	startTime 	25200
scalar MyScenario.node[49].veinsmobility 	totalTime 	9
scalar MyScenario.node[49].veinsmobility 	stopTime 	25209.1
scalar MyScenario.node[49].veinsmobility 	minSpeed 	0.72
scalar MyScenario.node[49].veinsmobility 	maxSpeed 	13.5866344272
scalar MyScenario.node[49].veinsmobility 	totalDistance 	77.414465617333
scalar MyScenario.node[49].veinsmobility 	totalCO2Emission 	37.20625022814
scalar MyScenario.node[98].appl 	generatedWSMs 	0
scalar MyScenario.node[98].appl 	receivedWSMs 	0
scalar MyScenario.node[98].appl 	generatedBSMs 	9
scalar MyScenario.node[98].appl 	receivedBSMs 	64
scalar MyScenario.node[98].appl 	generatedWSAs 	0
scalar MyScenario.node[98].appl 	receivedWSAs 	0
scalar MyScenario.node[98].nic.phy80211p 	busyTime 	0.00070808510638298
scalar MyScenario.node[98].nic.mac1609_4 	ReceivedUnicastPackets 	0
scalar MyScenario.node[98].nic.mac1609_4 	ReceivedBroadcasts 	64
scalar MyScenario.node[98].nic.mac1609_4 	SentPackets 	9
scalar MyScenario.node[98].nic.mac1609_4 	SNIRLostPackets 	0
scalar MyScenario.node[98].nic.mac1609_4 	RXTXLostPackets 	0
scalar MyScenario.node[98].nic.mac1609_4 	TotalLostPackets 	0
scalar MyScenario.node[98].nic.mac1609_4 	DroppedPacketsInMac 	0
scalar MyScenario.node[98].nic.mac1609_4 	TooLittleTime 	0
scalar MyScenario.node[98].nic.mac1609_4 	TimesIntoBackoff 	9
scalar MyScenario.node[98].nic.mac1609_4 	SlotsBackoff 	6
scalar MyScenario.node[98].nic.mac1609_4 	NumInternalContention 	0
scalar MyScenario.node[98].nic.mac1609_4 	totalBusyTime 	0.007601
scalar MyScenario.node[98].veinsmobility 	startTime 	25200
scalar MyScenario.node[98].veinsmobility 	totalTime 	9.3
scalar MyScenario.node[98].veinsmobility 	stopTime 	25209.4
scalar MyScenario.node[98].veinsmobility 	minSpeed 	0.43015795133135
scalar MyScenario.node[98].veinsmobility 	maxSpeed 	15.349473971915
scalar MyScenario.node[98].veinsmobility 	totalDistance 	85.397068806623
scalar MyScenario.node[98].veinsmobility 	totalCO2Emission 	44.754493742206
scalar MyScenario.node[75].appl 	generatedWSMs 	0
scalar MyScenario.node[75].appl 	receivedWSMs 	0
scalar MyScenario.node[75].appl 	generatedBSMs 	9
scalar MyScenario.node[75].appl 	receivedBSMs 	301
scalar MyScenario.node[75].appl 	generatedWSAs 	0
scalar MyScenario.node[75].appl 	receivedWSAs 	0
scalar MyScenario.node[75].nic.phy80211p 	busyTime 	0.0033041666666667
scalar MyScenario.node[75].nic.mac1609_4 	ReceivedUnicastPackets 	0
scalar MyScenario.node[75].nic.mac1609_4 	ReceivedBroadcasts 	301
scalar MyScenario.node[75].nic.mac1609_4 	SentPackets 	9
scalar MyScenario.node[75].nic.mac1609_4 	SNIRLostPackets 	4
scalar MyScenario.node[75].nic.mac1609_4 	RXTXLostPackets 	0
scalar MyScenario.node[75].nic.mac1609_4 	TotalLostPackets 	4
scalar MyScenario.node[75].nic.mac1609_4 	DroppedPacketsInMac 	0
scalar MyScenario.node[75].nic.mac1609_4 	TooLittleTime 	0
scalar MyScenario.node[75].nic.mac1609_4 	TimesIntoBackoff 	9
scalar MyScenario.node[75].nic.mac1609_4 	SlotsBackoff 	21
scalar MyScenario.node[75].nic.mac1609_4 	NumInternalContention 	0
scalar MyScenario.node[75].nic.mac1609_4 	totalBusyTime 	0.032457
scalar MyScenario.node[75].veinsmobility 	startTime 	25200
scalar MyScenario.node[75].veinsmobility 	totalTime 	9.5
scalar MyScenario.node[75].veinsmobility 	stopTime 	25209.6
scalar MyScenario.node[75].veinsmobility 	minSpeed 	30.834766577387
scalar MyScenario.node[75].veinsmobility 	maxSpeed 	31.095954738424
scalar MyScenario.node[75].veinsmobility 	totalDistance 	293.74696738023
scalar MyScenario.node[75].veinsmobility 	totalCO2Emission 	50.752734989125
scalar MyScenario.node[6].appl 	generatedWSMs 	0
scalar MyScenario.node[6].appl 	receivedWSMs 	0
scalar MyScenario.node[6].appl 	generatedBSMs 	10
scalar MyScenario.node[6].appl 	receivedBSMs 	156
scalar MyScenario.node[6].appl 	generatedWSAs 	0
scalar MyScenario.node[6].appl 	receivedWSAs 	0
scalar MyScenario.node[6].nic.phy80211p 	busyTime 	0.0016432
scalar MyScenario.node[6].nic.mac1609_4 	ReceivedUnicastPackets 	0
scalar MyScenario.node[6].nic.mac1609_4 	ReceivedBroadcasts 	156
scalar MyScenario.node[6].nic.mac1609_4 	SentPackets 	10
scalar MyScenario.node[6].nic.mac1609_4 	SNIRLostPackets 	2
scalar MyScenario.node[6].nic.mac1609_4 	RXTXLostPackets 	0
scalar MyScenario.node[6].nic.mac1609_4 	TotalLostPackets 	2
scalar MyScenario.node[6].nic.mac1609_4 	DroppedPacketsInMac 	0
scalar MyScenario.node[6].nic.mac1609_4 	TooLittleTime 	0
scalar MyScenario.node[6].nic.mac1609_4 	TimesIntoBackoff 	10
scalar MyScenario.node[6].nic.mac1609_4 	SlotsBackoff 	12
scalar MyScenario.node[6].nic.mac1609_4 	NumInternalContention 	0
scalar MyScenario.node[6].nic.mac1609_4 	totalBusyTime 	0.017378
scalar MyScenario.node[6].veinsmobility 	startTime 	25200
scalar MyScenario.node[6].veinsmobility 	totalTime 	9.9
scalar MyScenario.node[6].veinsmobility 	stopTime 	25210
scalar MyScenario.node[6].veinsmobility 	minSpeed 	32.444677449901
scalar MyScenario.node[6].veinsmobility 	maxSpeed 	32.659615970692
scalar MyScenario.node[6].veinsmobility 	totalDistance 	323.84549064259
scalar MyScenario.node[6].veinsmobility 	totalCO2Emission 	56.17235205632
scalar MyScenario.node[189].appl 	generatedWSMs 	0
scalar MyScenario.node[189].appl 	receivedWSMs 	0
scalar MyScenario.node[189].appl 	generatedBSMs 	10
scalar MyScenario.node[189].appl 	receivedBSMs 	113
scalar MyScenario.node[189].appl 	generatedWSAs 	0
scalar MyScenario.node[189].appl 	receivedWSAs 	0
scalar MyScenario.node[189].nic.phy80211p 	busyTime 	0.0011752
scalar MyScenario.node[189].nic.mac1609_4 	ReceivedUnicastPackets 	0
scalar MyScenario.node[189].nic.mac1609_4 	ReceivedBroadcasts 	113
scalar MyScenario.node[189].nic.mac1609_4 	SentPackets 	10
scalar MyScenario.node[189].nic.mac1609_4 	SNIRLostPackets 	0
scalar MyScenario.node[189].nic.mac1609_4 	RXTXLostPackets 	0
scalar MyScenario.node[189].nic.mac1609_4 	TotalLostPackets 	0
scalar MyScenario.node[189].nic.mac1609_4 	DroppedPacketsInMac 	0
scalar MyScenario.node[189].nic.mac1609_4 	TooLittleTime 	0
scalar MyScenario.node[189].nic.mac1609_4 	TimesIntoBackoff 	10
scalar MyScenario.node[189].nic.mac1609_4 	SlotsBackoff 	16
scalar MyScenario.node[189].nic.mac1609_4 	NumInternalContention 	0
scalar MyScenario.node[189].nic.mac1609_4 	totalBusyTime 	0.012802
scalar MyScenario.node[189].veinsmobility 	startTime 	25200
scalar MyScenario.node[189].veinsmobility 	totalTime 	9.9
scalar MyScenario.node[189].veinsmobility 	stopTime 	25210
scalar MyScenario.node[189].veinsmobility 	minSpeed 	0.24821757594431
scalar MyScenario.node[189].veinsmobility 	maxSpeed 	12.106001578135
scalar MyScenario.node[189].veinsmobility 	totalDistance 	84.791487054239
scalar MyScenario.node[189].veinsmobility 	totalCO2Emission 	35.506001190767
scalar MyScenario.node[141].appl 	generatedWSMs 	0
scalar MyScenario.node[141].appl 	receivedWSMs 	0
scalar MyScenario.node[141].appl 	generatedBSMs 	10
scalar MyScenario.node[141].appl 	receivedBSMs 	165
scalar MyScenario.node[141].appl 	generatedWSAs 	0
scalar MyScenario.node[141].appl 	receivedWSAs 	0
scalar MyScenario.node[141].nic.phy80211p 	busyTime 	0.0016660194174757
scalar MyScenario.node[141].nic.mac1609_4 	ReceivedUnicastPackets 	0
scalar MyScenario.node[141].nic.mac1609_4 	ReceivedBroadcasts 	165
scalar MyScenario.node[141].nic.mac1609_4 	SentPackets 	10
scalar MyScenario.node[141].nic.mac1609_4 	SNIRLostPackets 	0
scalar MyScenario.node[141].nic.mac1609_4 	RXTXLostPackets 	0
scalar MyScenario.node[141].nic.mac1609_4 	TotalLostPackets 	0
scalar MyScenario.node[141].nic.mac1609_4 	DroppedPacketsInMac 	0
scalar MyScenario.node[141].nic.mac1609_4 	TooLittleTime 	0
scalar MyScenario.node[141].nic.mac1609_4 	TimesIntoBackoff 	10
scalar MyScenario.node[141].nic.mac1609_4 	SlotsBackoff 	18
scalar MyScenario.node[141].nic.mac1609_4 	NumInternalContention 	0
scalar MyScenario.node[141].nic.mac1609_4 	totalBusyTime 	0.01821
scalar MyScenario.node[141].veinsmobility 	startTime 	25200
scalar MyScenario.node[141].veinsmobility 	totalTime 	10.2
scalar MyScenario.node[141].veinsmobility 	stopTime 	25210.3
scalar MyScenario.node[141].veinsmobility 	minSpeed 	36.780704038472
scalar MyScenario.node[141].veinsmobility 	maxSpeed 	36.926214507744
scalar MyScenario.node[141].veinsmobility 	totalDistance 	376.33786925324
scalar MyScenario.node[141].veinsmobility 	totalCO2Emission 	77.802334250115
scalar MyScenario.node[118].appl 	generatedWSMs 	0
scalar MyScenario.node[118].appl 	receivedWSMs 	0
scalar MyScenario.node[118].appl 	generatedBSMs 	10
scalar MyScenario.node[118].appl 	receivedBSMs 	162
scalar MyScenario.node[118].appl 	generatedWSAs 	0
scalar MyScenario.node[118].appl 	receivedWSAs 	0
scalar MyScenario.node[118].nic.phy80211p 	busyTime 	0.0015894339622642
scalar MyScenario.node[118].nic.mac1609_4 	ReceivedUnicastPackets 	0
scalar MyScenario.node[118].nic.mac1609_4 	ReceivedBroadcasts 	162
scalar MyScenario.node[118].nic.mac1609_4 	SentPackets 	10
scalar MyScenario.node[118].nic.mac1609_4 	SNIRLostPackets 	0
scalar MyScenario.node[118].nic.mac1609_4 	RXTXLostPackets 	0
scalar MyScenario.node[118].nic.mac1609_4 	TotalLostPackets 	0
scalar MyScenario.node[118].nic.mac1609_4 	DroppedPacketsInMac 	0
scalar MyScenario.node[118].nic.mac1609_4 	TooLittleTime 	0
scalar MyScenario.node[118].nic.mac1609_4 	TimesIntoBackoff 	10
scalar MyScenario.node[118].nic.mac1609_4 	SlotsBackoff 	18
scalar MyScenario.node[118].nic.mac1609_4 	NumInternalContention 	0
scalar MyScenario.node[118].nic.mac1609_4 	totalBusyTime 	0.017898
scalar MyScenario.node[118].veinsmobility 	startTime 	25200
scalar MyScenario.node[118].veinsmobility 	totalTime 	10.5
scalar MyScenario.node[118].veinsmobility 	stopTime 	25210.6
scalar MyScenario.node[118].veinsmobility 	minSpeed 	1.3873848157003
scalar MyScenario.node[118].veinsmobility 	maxSpeed 	16.421732260109
scalar MyScenario.node[118].veinsmobility 	totalDistance 	139.76591994879
scalar MyScenario.node[118].veinsmobility 	totalCO2Emission 	33.627762039994
scalar MyScenario.node[12].appl 	generatedWSMs 	0
scalar MyScenario.node[12].appl 	receivedWSMs 	0
scalar MyScenario.node[12].appl 	generatedBSMs 	11
scalar MyScenario.node[12].appl 	receivedBSMs 	328
scalar MyScenario.node[12].appl 	generatedWSAs 	0
scalar MyScenario.node[12].appl 	receivedWSAs 	0
scalar MyScenario.node[12].nic.phy80211p 	busyTime 	0.003197037037037
scalar MyScenario.node[12].nic.mac1609_4 	ReceivedUnicastPackets 	0
scalar MyScenario.node[12].nic.mac1609_4 	ReceivedBroadcasts 	328
scalar MyScenario.node[12].nic.mac1609_4 	SentPackets 	11
scalar MyScenario.node[12].nic.mac1609_4 	SNIRLostPackets 	4
scalar MyScenario.node[12].nic.mac1609_4 	RXTXLostPackets 	0
scalar MyScenario.node[12].nic.mac1609_4 	TotalLostPackets 	4
scalar MyScenario.node[12].nic.mac1609_4 	DroppedPacketsInMac 	0
scalar MyScenario.node[12].nic.mac1609_4 	TooLittleTime 	0
scalar MyScenario.node[12].nic.mac1609_4 	TimesIntoBackoff 	11
scalar MyScenario.node[12].nic.mac1609_4 	SlotsBackoff 	22
scalar MyScenario.node[12].nic.mac1609_4 	NumInternalContention 	0
scalar MyScenario.node[12].nic.mac1609_4 	totalBusyTime 	0.035475
scalar MyScenario.node[12].veinsmobility 	startTime 	25200
scalar MyScenario.node[12].veinsmobility 	totalTime 	10.7
scalar MyScenario.node[12].veinsmobility 	stopTime 	25210.8
scalar MyScenario.node[12].veinsmobility 	minSpeed 	30.970138673554
scalar MyScenario.node[12].veinsmobility 	maxSpeed 	32.176708225846
scalar MyScenario.node[12].veinsmobility 	totalDistance 	334.47789180879
scalar MyScenario.node[12].veinsmobility 	totalCO2Emission 	69.140406035569
scalar MyScenario.node[106].appl 	generatedWSMs 	0
scalar MyScenario.node[106].appl 	receivedWSMs 	0
scalar MyScenario.node[106].appl 	generatedBSMs 	11
scalar MyScenario.node[106].appl 	receivedBSMs 	144
scalar MyScenario.node[106].appl 	generatedWSAs 	0
scalar MyScenario.node[106].appl 	receivedWSAs 	0
scalar MyScenario.node[106].nic.phy80211p 	busyTime 	0.0013614545454545
scalar MyScenario.node[106].nic.mac1609_4 	ReceivedUnicastPackets 	0
scalar MyScenario.node[106].nic.mac1609_4 	ReceivedBroadcasts 	144
scalar MyScenario.node[106].nic.mac1609_4 	SentPackets 	11
scalar MyScenario.node[106].nic.mac1609_4 	SNIRLostPackets 	0
scalar MyScenario.node[106].nic.mac1609_4 	RXTXLostPackets 	0
scalar MyScenario.node[106].nic.mac1609_4 	TotalLostPackets 	0
scalar MyScenario.node[106].nic.mac1609_4 	DroppedPacketsInMac 	0
scalar MyScenario.node[106].nic.mac1609_4 	TooLittleTime 	0
scalar MyScenario.node[106].nic.mac1609_4 	TimesIntoBackoff 	11
scalar MyScenario.node[106].nic.mac1609_4 	SlotsBackoff 	20
scalar MyScenario.node[106].nic.mac1609_4 	NumInternalContention 	0
scalar MyScenario.node[106].nic.mac1609_4 	totalBusyTime 	0.016131
scalar MyScenario.node[106].veinsmobility 	startTime 	25200
scalar MyScenario.node[106].veinsmobility 	totalTime 	10.9
scalar MyScenario.node[106].veinsmobility 	stopTime 	25211
scalar MyScenario.node[106].veinsmobility 	minSpeed 	15.86826337687
scalar MyScenario.node[106].veinsmobility 	maxSpeed 	16.011643408314
scalar MyScenario.node[106].veinsmobility 	totalDistance 	172.79500546694
scalar MyScenario.node[106].veinsmobility 	totalCO2Emission 	29.078475428151
scalar MyScenario.node[26].appl 	generatedWSMs 	0
scalar MyScenario.node[26].appl 	receivedWSMs 	0
scalar MyScenario.node[26].appl 	generatedBSMs 	12
scalar MyScenario.node[26].appl 	receivedBSMs 	159
scalar MyScenario.node[26].appl 	generatedWSAs 	0
scalar MyScenario.node[26].appl 	receivedWSAs 	0
scalar MyScenario.node[26].nic.phy80211p 	busyTime 	0.0013666115702479
scalar MyScenario.node[26].nic.mac1609_4 	ReceivedUnicastPackets 	0
scalar MyScenario.node[26].nic.mac1609_4 	ReceivedBroadcasts 	159
scalar MyScenario.node[26].nic.mac1609_4 	SentPackets 	12
scalar MyScenario.node[26].nic.mac1609_4 	SNIRLostPackets 	0
scalar MyScenario.node[26].nic.mac1609_4 	RXTXLostPackets 	0
scalar MyScenario.node[26].nic.mac1609_4 	TotalLostPackets 	0
scalar MyScenario.node[26].nic.mac1609_4 	DroppedPacketsInMac 	0
scalar MyScenario.node[26].nic.mac1609_4 	TooLittleTime 	0
scalar MyScenario.node[26].nic.mac1609_4 	TimesIntoBackoff 	12
scalar MyScenario.node[26].nic.mac1609_4 	SlotsBackoff 	15
scalar MyScenario.node[26].nic.mac1609_4 	NumInternalContention 	0
scalar MyScenario.node[26].nic.mac1609_4 	totalBusyTime 	0.017796
scalar MyScenario.node[26].veinsmobility 	startTime 	25200
scalar MyScenario.node[26].veinsmobility 	totalTime 	12
scalar MyScenario.node[26].veinsmobility 	stopTime 	25212.1
scalar MyScenario.node[26].veinsmobility 	minSpeed 	4.6266833698625e-14
scalar MyScenario.node[26].veinsmobility 	maxSpeed 	12.931595421794
scalar MyScenario.node[26].veinsmobility 	totalDistance 	113.58235439659
scalar MyScenario.node[26].veinsmobility 	totalCO2Emission 	42.19266400017
scalar MyScenario.node[71].appl 	generatedWSMs 	0
scalar MyScenario.node[71].appl 	receivedWSMs 	0
scalar MyScenario.node[71].appl 	generatedBSMs 	13
scalar MyScenario.node[71].appl 	receivedBSMs 	333
scalar MyScenario.node[71].appl 	generatedWSAs 	0
scalar MyScenario.node[71].appl 	receivedWSAs 	0
scalar MyScenario.node[71].nic.phy80211p 	busyTime 	0.0028621487603306
scalar MyScenario.node[71].nic.mac1609_4 	ReceivedUnicastPackets 	0
scalar MyScenario.node[71].nic.mac1609_4 	ReceivedBroadcasts 	333
scalar MyScenario.node[71].nic.mac1609_4 	SentPackets 	13
scalar MyScenario.node[71].nic.mac1609_4 	SNIRLostPackets 	0
scalar MyScenario.node[71].nic.mac1609_4 	RXTXLostPackets 	0
scalar MyScenario.node[71].nic.mac1609_4 	TotalLostPackets 	0
scalar MyScenario.node[71].nic.mac1609_4 	DroppedPacketsInMac 	0
scalar MyScenario.node[71].nic.mac1609_4 	TooLittleTime 	0
scalar MyScenario.node[71].nic.mac1609_4 	TimesIntoBackoff 	13
scalar MyScenario.node[71].nic.mac1609_4 	SlotsBackoff 	18
scalar MyScenario.node[71].nic.mac1609_4 	NumInternalContention 	0
scalar MyScenario.node[71].nic.mac1609_4 	totalBusyTime 	0.035997
scalar MyScenario.node[71].veinsmobility 	startTime 	25200
scalar MyScenario.node[71].veinsmobility 	totalTime 	12
scalar MyScenario.node[71].veinsmobility 	stopTime 	25212.1
scalar MyScenario.node[71].veinsmobility 	minSpeed 	0
scalar MyScenario.node[71].veinsmobility 	maxSpeed 	18.637424528346
scalar MyScenario.node[71].veinsmobility 	totalDistance 	103.09787308447
scalar MyScenario.node[71].veinsmobility 	totalCO2Emission 	63.124418923964
scalar MyScenario.node[135].appl 	generatedWSMs 	0
scalar MyScenario.node[135].appl 	receivedWSMs 	0
scalar MyScenario.node[135].appl 	generatedBSMs 	13
scalar MyScenario.node[135].appl 	receivedBSMs 	167
scalar MyScenario.node[135].appl 	generatedWSAs 	0
scalar MyScenario.node[135].appl 	receivedWSAs 	0
scalar MyScenario.node[135].nic.phy80211p 	busyTime 	0.0014006451612903
scalar MyScenario.node[135].nic.mac1609_4 	ReceivedUnicastPackets 	0
scalar MyScenario.node[135].nic.mac1609_4 	ReceivedBroadcasts 	167
scalar MyScenario.node[135].nic.mac1609_4 	SentPackets 	13
scalar MyScenario.node[135].nic.mac1609_4 	SNIRLostPackets 	0
scalar MyScenario.node[135].nic.mac1609_4 	RXTXLostPackets 	0
scalar MyScenario.node[135].nic.mac1609_4 	TotalLostPackets 	0
scalar MyScenario.node[135].nic.mac1609_4 	DroppedPacketsInMac 	0
scalar MyScenario.node[135].nic.mac1609_4 	TooLittleTime 	0
scalar MyScenario.node[135].nic.mac1609_4 	TimesIntoBackoff 	13
scalar MyScenario.node[135].nic.mac1609_4 	SlotsBackoff 	23
scalar MyScenario.node[135].nic.mac1609_4 	NumInternalContention 	0
scalar MyScenario.node[135].nic.mac1609_4 	totalBusyTime 	0.018733
scalar MyScenario.node[135].veinsmobility 	startTime 	25200
scalar MyScenario.node[135].veinsmobility 	totalTime 	12.3
scalar MyScenario.node[135].veinsmobility 	stopTime 	25212.4
scalar MyScenario.node[135].veinsmobility 	minSpeed 	15.638758407562
scalar MyScenario.node[135].veinsmobility 	maxSpeed 	16.005252410394
scalar MyScenario.node[135].veinsmobility 	totalDistance 	193.9768195829
scalar MyScenario.node[135].veinsmobility 	totalCO2Emission 	35.983207439475
scalar MyScenario.node[200].appl 	generatedWSMs 	0
scalar MyScenario.node[200].appl 	receivedWSMs 	0
scalar MyScenario.node[200].appl 	generatedBSMs 	13
scalar MyScenario.node[200].appl 	receivedBSMs 	264
scalar MyScenario.node[200].appl 	generatedWSAs 	0
scalar MyScenario.node[200].appl 	receivedWSAs 	0
scalar MyScenario.node[200].nic.phy80211p 	busyTime 	0.00208
scalar MyScenario.node[200].nic.mac1609_4 	ReceivedUnicastPackets 	0
scalar MyScenario.node[200].nic.mac1609_4 	ReceivedBroadcasts 	264
scalar MyScenario.node[200].nic.mac1609_4 	SentPackets 	13
scalar MyScenario.node[200].nic.mac1609_4 	SNIRLostPackets 	0
scalar MyScenario.node[200].nic.mac1609_4 	RXTXLostPackets 	0
scalar MyScenario.node[200].nic.mac1609_4 	TotalLostPackets 	0
scalar MyScenario.node[200].nic.mac1609_4 	DroppedPacketsInMac 	0
scalar MyScenario.node[200].nic.mac1609_4 	TooLittleTime 	0
scalar MyScenario.node[200].nic.mac1609_4 	TimesIntoBackoff 	13
scalar MyScenario.node[200].nic.mac1609_4 	SlotsBackoff 	19
scalar MyScenario.node[200].nic.mac1609_4 	NumInternalContention 	0
scalar MyScenario.node[200].nic.mac1609_4 	totalBusyTime 	0.028821
scalar MyScenario.node[200].veinsmobility 	startTime 	25200
scalar MyScenario.node[200].veinsmobility 	totalTime 	13.1
scalar MyScenario.node[200].veinsmobility 	stopTime 	25213.2
scalar MyScenario.node[200].veinsmobility 	minSpeed 	4.5594245088754e-14
scalar MyScenario.node[200].veinsmobility 	maxSpeed 	14.936875260374
scalar MyScenario.node[200].veinsmobility 	totalDistance 	114.62851068477
scalar MyScenario.node[200].veinsmobility 	totalCO2Emission 	47.8013004625
scalar MyScenario.node[100].appl 	generatedWSMs 	0
scalar MyScenario.node[100].appl 	receivedWSMs 	0
scalar MyScenario.node[100].appl 	generatedBSMs 	14
scalar MyScenario.node[100].appl 	receivedBSMs 	164
scalar MyScenario.node[100].appl 	generatedWSAs 	0
scalar MyScenario.node[100].appl 	receivedWSAs 	0
scalar MyScenario.node[100].nic.phy80211p 	busyTime 	0.0012728358208955
scalar MyScenario.node[100].nic.mac1609_4 	ReceivedUnicastPackets 	0
scalar MyScenario.node[100].nic.mac1609_4 	ReceivedBroadcasts 	164
scalar MyScenario.node[100].nic.mac1609_4 	SentPackets 	14
scalar MyScenario.node[100].nic.mac1609_4 	SNIRLostPackets 	0
scalar MyScenario.node[100].nic.mac1609_4 	RXTXLostPackets 	0
scalar MyScenario.node[100].nic.mac1609_4 	TotalLostPackets 	0
scalar MyScenario.node[100].nic.mac1609_4 	DroppedPacketsInMac 	0
scalar MyScenario.node[100].nic.mac1609_4 	TooLittleTime 	0
scalar MyScenario.node[100].nic.mac1609_4 	TimesIntoBackoff 	14
scalar MyScenario.node[100].nic.mac1609_4 	SlotsBackoff 	22
scalar MyScenario.node[100].nic.mac1609_4 	NumInternalContention 	0
scalar MyScenario.node[100].nic.mac1609_4 	totalBusyTime 	0.018526
scalar MyScenario.node[100].veinsmobility 	startTime 	25200
scalar MyScenario.node[100].veinsmobility 	totalTime 	13.3
scalar MyScenario.node[100].veinsmobility 	stopTime 	25213.4
scalar MyScenario.node[100].veinsmobility 	minSpeed 	4.6829706753475e-14
scalar MyScenario.node[100].veinsmobility 	maxSpeed 	12.910386274056
scalar MyScenario.node[100].veinsmobility 	totalDistance 	113.97977931302
scalar MyScenario.node[100].veinsmobility 	totalCO2Emission 	48.335232042382
scalar MyScenario.node[64].appl 	generatedWSMs 	0
scalar MyScenario.node[64].appl 	receivedWSMs 	0
scalar MyScenario.node[64].appl 	generatedBSMs 	14
scalar MyScenario.node[64].appl 	receivedBSMs 	420
scalar MyScenario.node[64].appl 	generatedWSAs 	0
scalar MyScenario.node[64].appl 	receivedWSAs 	0
scalar MyScenario.node[64].nic.phy80211p 	busyTime 	0.0032355555555556
scalar MyScenario.node[64].nic.mac1609_4 	ReceivedUnicastPackets 	0
scalar MyScenario.node[64].nic.mac1609_4 	ReceivedBroadcasts 	420
scalar MyScenario.node[64].nic.mac1609_4 	SentPackets 	14
scalar MyScenario.node[64].nic.mac1609_4 	SNIRLostPackets 	0
scalar MyScenario.node[64].nic.mac1609_4 	RXTXLostPackets 	0
scalar MyScenario.node[64].nic.mac1609_4 	TotalLostPackets 	0
scalar MyScenario.node[64].nic.mac1609_4 	DroppedPacketsInMac 	0
scalar MyScenario.node[64].nic.mac1609_4 	TooLittleTime 	0
scalar MyScenario.node[64].nic.mac1609_4 	TimesIntoBackoff 	14
scalar MyScenario.node[64].nic.mac1609_4 	SlotsBackoff 	18
scalar MyScenario.node[64].nic.mac1609_4 	NumInternalContention 	0
scalar MyScenario.node[64].nic.mac1609_4 	totalBusyTime 	0.04515
scalar MyScenario.node[64].veinsmobility 	startTime 	25200
scalar MyScenario.node[64].veinsmobility 	totalTime 	13.4
scalar MyScenario.node[64].veinsmobility 	stopTime 	25213.5
scalar MyScenario.node[64].veinsmobility 	minSpeed 	0.25618505740119
scalar MyScenario.node[64].veinsmobility 	maxSpeed 	11.023004623363
scalar MyScenario.node[64].veinsmobility 	totalDistance 	106.50934068056
scalar MyScenario.node[64].veinsmobility 	totalCO2Emission 	36.645164807526
scalar MyScenario.node[168].appl 	generatedWSMs 	0
scalar MyScenario.node[168].appl 	receivedWSMs 	0
scalar MyScenario.node[168].appl 	generatedBSMs 	14
scalar MyScenario.node[168].appl 	receivedBSMs 	409
scalar MyScenario.node[168].appl 	generatedWSAs 	0
scalar MyScenario.node[168].appl 	receivedWSAs 	0
scalar MyScenario.node[168].nic.phy80211p 	busyTime 	0.003105035971223
scalar MyScenario.node[168].nic.mac1609_4 	ReceivedUnicastPackets 	0
scalar MyScenario.node[168].nic.mac1609_4 	ReceivedBroadcasts 	409
scalar MyScenario.node[168].nic.mac1609_4 	SentPackets 	14
scalar MyScenario.node[168].nic.mac1609_4 	SNIRLostPackets 	6
scalar MyScenario.node[168].nic.mac1609_4 	RXTXLostPackets 	0
scalar MyScenario.node[168].nic.mac1609_4 	TotalLostPackets 	6
scalar MyScenario.node[168].nic.mac1609_4 	DroppedPacketsInMac 	0
scalar MyScenario.node[168].nic.mac1609_4 	TooLittleTime 	0
scalar MyScenario.node[168].nic.mac1609_4 	TimesIntoBackoff 	14
scalar MyScenario.node[168].nic.mac1609_4 	SlotsBackoff 	25
scalar MyScenario.node[168].nic.mac1609_4 	NumInternalContention 	0
scalar MyScenario.node[168].nic.mac1609_4 	totalBusyTime 	0.044422
scalar MyScenario.node[168].veinsmobility 	startTime 	25200
scalar MyScenario.node[168].veinsmobility 	totalTime 	13.8
scalar MyScenario.node[168].veinsmobility 	stopTime 	25213.9
scalar MyScenario.node[168].veinsmobility 	minSpeed 	34.98982747803
scalar MyScenario.node[168].veinsmobility 	maxSpeed 	35.118886971598
scalar MyScenario.node[168].veinsmobility 	totalDistance 	483.74626591652
scalar MyScenario.node[168].veinsmobility 	totalCO2Emission 	93.896135339772
scalar MyScenario.node[24].appl 	generatedWSMs 	0
scalar MyScenario.node[24].appl 	receivedWSMs 	0
scalar MyScenario.node[24].appl 	generatedBSMs 	15
scalar MyScenario.node[24].appl 	receivedBSMs 	181
scalar MyScenario.node[24].appl 	generatedWSAs 	0
scalar MyScenario.node[24].appl 	receivedWSAs 	0
scalar MyScenario.node[24].nic.phy80211p 	busyTime 	0.001263355704698
scalar MyScenario.node[24].nic.mac1609_4 	ReceivedUnicastPackets 	0
scalar MyScenario.node[24].nic.mac1609_4 	ReceivedBroadcasts 	181
scalar MyScenario.node[24].nic.mac1609_4 	SentPackets 	15
scalar MyScenario.node[24].nic.mac1609_4 	SNIRLostPackets 	0
scalar MyScenario.node[24].nic.mac1609_4 	RXTXLostPackets 	0
scalar MyScenario.node[24].nic.mac1609_4 	TotalLostPackets 	0
scalar MyScenario.node[24].nic.mac1609_4 	DroppedPacketsInMac 	0
scalar MyScenario.node[24].nic.mac1609_4 	TooLittleTime 	0
scalar MyScenario.node[24].nic.mac1609_4 	TimesIntoBackoff 	15
scalar MyScenario.node[24].nic.mac1609_4 	SlotsBackoff 	23
scalar MyScenario.node[24].nic.mac1609_4 	NumInternalContention 	0
scalar MyScenario.node[24].nic.mac1609_4 	totalBusyTime 	0.020399
scalar MyScenario.node[24].veinsmobility 	startTime 	25200
scalar MyScenario.node[24].veinsmobility 	totalTime 	14.8
scalar MyScenario.node[24].veinsmobility 	stopTime 	25214.9
scalar MyScenario.node[24].veinsmobility 	minSpeed 	4.5435934853611e-14
scalar MyScenario.node[24].veinsmobility 	maxSpeed 	12.323808108439
scalar MyScenario.node[24].veinsmobility 	totalDistance 	120.50101710481
scalar MyScenario.node[24].veinsmobility 	totalCO2Emission 	47.439788011143
scalar MyScenario.node[53].appl 	generatedWSMs 	0
scalar MyScenario.node[53].appl 	receivedWSMs 	0
scalar MyScenario.node[53].appl 	generatedBSMs 	15
scalar MyScenario.node[53].appl 	receivedBSMs 	455
scalar MyScenario.node[53].appl 	generatedWSAs 	0
scalar MyScenario.node[53].appl 	receivedWSAs 	0
scalar MyScenario.node[53].nic.phy80211p 	busyTime 	0.0031471895424837
scalar MyScenario.node[53].nic.mac1609_4 	ReceivedUnicastPackets 	0
scalar MyScenario.node[53].nic.mac1609_4 	ReceivedBroadcasts 	455
scalar MyScenario.node[53].nic.mac1609_4 	SentPackets 	15
scalar MyScenario.node[53].nic.mac1609_4 	SNIRLostPackets 	8
scalar MyScenario.node[53].nic.mac1609_4 	RXTXLostPackets 	0
scalar MyScenario.node[53].nic.mac1609_4 	TotalLostPackets 	8
scalar MyScenario.node[53].nic.mac1609_4 	DroppedPacketsInMac 	0
scalar MyScenario.node[53].nic.mac1609_4 	TooLittleTime 	0
scalar MyScenario.node[53].nic.mac1609_4 	TimesIntoBackoff 	15
scalar MyScenario.node[53].nic.mac1609_4 	SlotsBackoff 	16
scalar MyScenario.node[53].nic.mac1609_4 	NumInternalContention 	0
scalar MyScenario.node[53].nic.mac1609_4 	totalBusyTime 	0.049207
scalar MyScenario.node[53].veinsmobility 	startTime 	25200
scalar MyScenario.node[53].veinsmobility 	totalTime 	15.2
scalar MyScenario.node[53].veinsmobility 	stopTime 	25215.3
scalar MyScenario.node[53].veinsmobility 	minSpeed 	36.016538559522
scalar MyScenario.node[53].veinsmobility 	maxSpeed 	40.08738385186
scalar MyScenario.node[53].veinsmobility 	totalDistance 	570.58488951398
scalar MyScenario.node[53].veinsmobility 	totalCO2Emission 	81.660664378174
scalar MyScenario.node[179].appl 	generatedWSMs 	0
scalar MyScenario.node[179].appl 	receivedWSMs 	0
scalar MyScenario.node[179].appl 	generatedBSMs 	16
scalar MyScenario.node[179].appl 	receivedBSMs 	361
scalar MyScenario.node[179].appl 	generatedWSAs 	0
scalar MyScenario.node[179].appl 	receivedWSAs 	0
scalar MyScenario.node[179].nic.phy80211p 	busyTime 	0.0023448447204969
scalar MyScenario.node[179].nic.mac1609_4 	ReceivedUnicastPackets 	0
scalar MyScenario.node[179].nic.mac1609_4 	ReceivedBroadcasts 	361
scalar MyScenario.node[179].nic.mac1609_4 	SentPackets 	16
scalar MyScenario.node[179].nic.mac1609_4 	SNIRLostPackets 	2
scalar MyScenario.node[179].nic.mac1609_4 	RXTXLostPackets 	0
scalar MyScenario.node[179].nic.mac1609_4 	TotalLostPackets 	2
scalar MyScenario.node[179].nic.mac1609_4 	DroppedPacketsInMac 	0
scalar MyScenario.node[179].nic.mac1609_4 	TooLittleTime 	0
scalar MyScenario.node[179].nic.mac1609_4 	TimesIntoBackoff 	16
scalar MyScenario.node[179].nic.mac1609_4 	SlotsBackoff 	24
scalar MyScenario.node[179].nic.mac1609_4 	NumInternalContention 	0
scalar MyScenario.node[179].nic.mac1609_4 	totalBusyTime 	0.039328
scalar MyScenario.node[179].veinsmobility 	startTime 	25200
scalar MyScenario.node[179].veinsmobility 	totalTime 	16
scalar MyScenario.node[179].veinsmobility 	stopTime 	25216.1
scalar MyScenario.node[179].veinsmobility 	minSpeed 	38.367899020687
scalar MyScenario.node[179].veinsmobility 	maxSpeed 	38.497210873841
scalar MyScenario.node[179].veinsmobility 	totalDistance 	615.69904299196
scalar MyScenario.node[179].veinsmobility 	totalCO2Emission 	130.88951191087
scalar MyScenario.node[109].appl 	generatedWSMs 	0
scalar MyScenario.node[109].appl 	receivedWSMs 	0
scalar MyScenario.node[109].appl 	generatedBSMs 	17
scalar MyScenario.node[109].appl 	receivedBSMs 	509
scalar MyScenario.node[109].appl 	generatedWSAs 	0
scalar MyScenario.node[109].appl 	receivedWSAs 	0
scalar MyScenario.node[109].nic.phy80211p 	busyTime 	0.0032341463414634
scalar MyScenario.node[109].nic.mac1609_4 	ReceivedUnicastPackets 	0
scalar MyScenario.node[109].nic.mac1609_4 	ReceivedBroadcasts 	509
scalar MyScenario.node[109].nic.mac1609_4 	SentPackets 	17
scalar MyScenario.node[109].nic.mac1609_4 	SNIRLostPackets 	1
scalar MyScenario.node[109].nic.mac1609_4 	RXTXLostPackets 	0
scalar MyScenario.node[109].nic.mac1609_4 	TotalLostPackets 	1
scalar MyScenario.node[109].nic.mac1609_4 	DroppedPacketsInMac 	0
scalar MyScenario.node[109].nic.mac1609_4 	TooLittleTime 	0
scalar MyScenario.node[109].nic.mac1609_4 	TimesIntoBackoff 	17
scalar MyScenario.node[109].nic.mac1609_4 	SlotsBackoff 	25
scalar MyScenario.node[109].nic.mac1609_4 	NumInternalContention 	0
scalar MyScenario.node[109].nic.mac1609_4 	totalBusyTime 	0.054825
scalar MyScenario.node[109].veinsmobility 	startTime 	25200
scalar MyScenario.node[109].veinsmobility 	totalTime 	16.3
scalar MyScenario.node[109].veinsmobility 	stopTime 	25216.4
scalar MyScenario.node[109].veinsmobility 	minSpeed 	14.115077148814
scalar MyScenario.node[109].veinsmobility 	maxSpeed 	14.80469043331
scalar MyScenario.node[109].veinsmobility 	totalDistance 	229.50834653765
scalar MyScenario.node[109].veinsmobility 	totalCO2Emission 	42.581153054353
scalar MyScenario.node[14].appl 	generatedWSMs 	0
scalar MyScenario.node[14].appl 	receivedWSMs 	0
scalar MyScenario.node[14].appl 	generatedBSMs 	16
scalar MyScenario.node[14].appl 	receivedBSMs 	473
scalar MyScenario.node[14].appl 	generatedWSAs 	0
scalar MyScenario.node[14].appl 	receivedWSAs 	0
scalar MyScenario.node[14].nic.phy80211p 	busyTime 	0.0030191515151515
scalar MyScenario.node[14].nic.mac1609_4 	ReceivedUnicastPackets 	0
scalar MyScenario.node[14].nic.mac1609_4 	ReceivedBroadcasts 	473
scalar MyScenario.node[14].nic.mac1609_4 	SentPackets 	16
scalar MyScenario.node[14].nic.mac1609_4 	SNIRLostPackets 	6
scalar MyScenario.node[14].nic.mac1609_4 	RXTXLostPackets 	0
scalar MyScenario.node[14].nic.mac1609_4 	TotalLostPackets 	6
scalar MyScenario.node[14].nic.mac1609_4 	DroppedPacketsInMac 	0
scalar MyScenario.node[14].nic.mac1609_4 	TooLittleTime 	0
scalar MyScenario.node[14].nic.mac1609_4 	TimesIntoBackoff 	16
scalar MyScenario.node[14].nic.mac1609_4 	SlotsBackoff 	24
scalar MyScenario.node[14].nic.mac1609_4 	NumInternalContention 	0
scalar MyScenario.node[14].nic.mac1609_4 	totalBusyTime 	0.051184
scalar MyScenario.node[14].veinsmobility 	startTime 	25200
scalar MyScenario.node[14].veinsmobility 	totalTime 	16.4
scalar MyScenario.node[14].veinsmobility 	stopTime 	25216.5
scalar MyScenario.node[14].veinsmobility 	minSpeed 	29.886040587097
scalar MyScenario.node[14].veinsmobility 	maxSpeed 	29.999663206936
[...]
scalar MyScenario.node[190].nic.mac1609_4 	SlotsBackoff 	142
scalar MyScenario.node[190].nic.mac1609_4 	NumInternalContention 	0
scalar MyScenario.node[190].nic.mac1609_4 	totalBusyTime 	0.281212
scalar MyScenario.node[190].veinsmobility 	startTime 	25200
scalar MyScenario.node[190].veinsmobility 	totalTime 	100
scalar MyScenario.node[190].veinsmobility 	stopTime 	25300
scalar MyScenario.node[190].veinsmobility 	minSpeed 	0
scalar MyScenario.node[190].veinsmobility 	maxSpeed 	12.669763696634
scalar MyScenario.node[190].veinsmobility 	totalDistance 	692.05019051586
scalar MyScenario.node[190].veinsmobility 	totalCO2Emission 	199.0785107769
scalar MyScenario.node[479].appl 	generatedWSMs 	0
scalar MyScenario.node[479].appl 	receivedWSMs 	0
scalar MyScenario.node[479].appl 	generatedBSMs 	5
scalar MyScenario.node[479].appl 	receivedBSMs 	10
scalar MyScenario.node[479].appl 	generatedWSAs 	0
scalar MyScenario.node[479].appl 	receivedWSAs 	0
scalar MyScenario.node[479].nic.phy80211p 	busyTime 	0.00019259259259259
scalar MyScenario.node[479].nic.mac1609_4 	ReceivedUnicastPackets 	0
scalar MyScenario.node[479].nic.mac1609_4 	ReceivedBroadcasts 	10
scalar MyScenario.node[479].nic.mac1609_4 	SentPackets 	5
scalar MyScenario.node[479].nic.mac1609_4 	SNIRLostPackets 	0
scalar MyScenario.node[479].nic.mac1609_4 	RXTXLostPackets 	0
scalar MyScenario.node[479].nic.mac1609_4 	TotalLostPackets 	0
scalar MyScenario.node[479].nic.mac1609_4 	DroppedPacketsInMac 	0
scalar MyScenario.node[479].nic.mac1609_4 	TooLittleTime 	0
scalar MyScenario.node[479].nic.mac1609_4 	TimesIntoBackoff 	5
scalar MyScenario.node[479].nic.mac1609_4 	SlotsBackoff 	2
scalar MyScenario.node[479].nic.mac1609_4 	NumInternalContention 	0
scalar MyScenario.node[479].nic.mac1609_4 	totalBusyTime 	0.001565
scalar MyScenario.node[479].veinsmobility 	startTime 	25294.6
scalar MyScenario.node[479].veinsmobility 	totalTime 	5.4
scalar MyScenario.node[479].veinsmobility 	stopTime 	25300
scalar MyScenario.node[479].veinsmobility 	minSpeed 	34.538764912804
scalar MyScenario.node[479].veinsmobility 	maxSpeed 	34.665139867649
scalar MyScenario.node[479].veinsmobility 	totalDistance 	186.3730566383
scalar MyScenario.node[479].veinsmobility 	totalCO2Emission 	35.23467392619
scalar MyScenario.node[281].appl 	generatedWSMs 	0
scalar MyScenario.node[281].appl 	receivedWSMs 	0
scalar MyScenario.node[281].appl 	generatedBSMs 	77
scalar MyScenario.node[281].appl 	receivedBSMs 	1780
scalar MyScenario.node[281].appl 	generatedWSAs 	0
scalar MyScenario.node[281].appl 	receivedWSAs 	0
scalar MyScenario.node[281].nic.phy80211p 	busyTime 	0.0023794344473008
scalar MyScenario.node[281].nic.mac1609_4 	ReceivedUnicastPackets 	0
scalar MyScenario.node[281].nic.mac1609_4 	ReceivedBroadcasts 	1780
scalar MyScenario.node[281].nic.mac1609_4 	SentPackets 	77
scalar MyScenario.node[281].nic.mac1609_4 	SNIRLostPackets 	0
scalar MyScenario.node[281].nic.mac1609_4 	RXTXLostPackets 	0
scalar MyScenario.node[281].nic.mac1609_4 	TotalLostPackets 	0
scalar MyScenario.node[281].nic.mac1609_4 	DroppedPacketsInMac 	0
scalar MyScenario.node[281].nic.mac1609_4 	TooLittleTime 	0
scalar MyScenario.node[281].nic.mac1609_4 	TimesIntoBackoff 	77
scalar MyScenario.node[281].nic.mac1609_4 	SlotsBackoff 	126
scalar MyScenario.node[281].nic.mac1609_4 	NumInternalContention 	0
scalar MyScenario.node[281].nic.mac1609_4 	totalBusyTime 	0.193205
scalar MyScenario.node[281].veinsmobility 	startTime 	25222.2
scalar MyScenario.node[281].veinsmobility 	totalTime 	77.8
scalar MyScenario.node[281].veinsmobility 	stopTime 	25300
scalar MyScenario.node[281].veinsmobility 	minSpeed 	9.3267950015309
scalar MyScenario.node[281].veinsmobility 	maxSpeed 	34.678295262138
scalar MyScenario.node[281].veinsmobility 	totalDistance 	1821.7741747283
scalar MyScenario.node[281].veinsmobility 	totalCO2Emission 	328.71973148229
scalar MyScenario.node[447].appl 	generatedWSMs 	0
scalar MyScenario.node[447].appl 	receivedWSMs 	0
scalar MyScenario.node[447].appl 	generatedBSMs 	12
scalar MyScenario.node[447].appl 	receivedBSMs 	184
scalar MyScenario.node[447].appl 	generatedWSAs 	0
scalar MyScenario.node[447].appl 	receivedWSAs 	0
scalar MyScenario.node[447].nic.phy80211p 	busyTime 	0.0016080672268908
scalar MyScenario.node[447].nic.mac1609_4 	ReceivedUnicastPackets 	0
scalar MyScenario.node[447].nic.mac1609_4 	ReceivedBroadcasts 	184
scalar MyScenario.node[447].nic.mac1609_4 	SentPackets 	12
scalar MyScenario.node[447].nic.mac1609_4 	SNIRLostPackets 	0
scalar MyScenario.node[447].nic.mac1609_4 	RXTXLostPackets 	0
scalar MyScenario.node[447].nic.mac1609_4 	TotalLostPackets 	0
scalar MyScenario.node[447].nic.mac1609_4 	DroppedPacketsInMac 	0
scalar MyScenario.node[447].nic.mac1609_4 	TooLittleTime 	0
scalar MyScenario.node[447].nic.mac1609_4 	TimesIntoBackoff 	12
scalar MyScenario.node[447].nic.mac1609_4 	SlotsBackoff 	14
scalar MyScenario.node[447].nic.mac1609_4 	NumInternalContention 	0
scalar MyScenario.node[447].nic.mac1609_4 	totalBusyTime 	0.020396
scalar MyScenario.node[447].veinsmobility 	startTime 	25288.1
scalar MyScenario.node[447].veinsmobility 	totalTime 	11.9
scalar MyScenario.node[447].veinsmobility 	stopTime 	25300
scalar MyScenario.node[447].veinsmobility 	minSpeed 	12.174733305453
scalar MyScenario.node[447].veinsmobility 	maxSpeed 	12.324003627499
scalar MyScenario.node[447].veinsmobility 	totalDistance 	145.29245809556
scalar MyScenario.node[447].veinsmobility 	totalCO2Emission 	27.96392301539
scalar MyScenario.node[194].appl 	generatedWSMs 	0
scalar MyScenario.node[194].appl 	receivedWSMs 	0
scalar MyScenario.node[194].appl 	generatedBSMs 	100
scalar MyScenario.node[194].appl 	receivedBSMs 	2185
scalar MyScenario.node[194].appl 	generatedWSAs 	0
scalar MyScenario.node[194].appl 	receivedWSAs 	0
scalar MyScenario.node[194].nic.phy80211p 	busyTime 	0.00227448
scalar MyScenario.node[194].nic.mac1609_4 	ReceivedUnicastPackets 	0
scalar MyScenario.node[194].nic.mac1609_4 	ReceivedBroadcasts 	2185
scalar MyScenario.node[194].nic.mac1609_4 	SentPackets 	100
scalar MyScenario.node[194].nic.mac1609_4 	SNIRLostPackets 	2
scalar MyScenario.node[194].nic.mac1609_4 	RXTXLostPackets 	0
scalar MyScenario.node[194].nic.mac1609_4 	TotalLostPackets 	2
scalar MyScenario.node[194].nic.mac1609_4 	DroppedPacketsInMac 	0
scalar MyScenario.node[194].nic.mac1609_4 	TooLittleTime 	0
scalar MyScenario.node[194].nic.mac1609_4 	TimesIntoBackoff 	100
scalar MyScenario.node[194].nic.mac1609_4 	SlotsBackoff 	177
scalar MyScenario.node[194].nic.mac1609_4 	NumInternalContention 	0
scalar MyScenario.node[194].nic.mac1609_4 	totalBusyTime 	0.237948
scalar MyScenario.node[194].veinsmobility 	startTime 	25200
scalar MyScenario.node[194].veinsmobility 	totalTime 	100
scalar MyScenario.node[194].veinsmobility 	stopTime 	25300
scalar MyScenario.node[194].veinsmobility 	minSpeed 	0
scalar MyScenario.node[194].veinsmobility 	maxSpeed 	12.936590748871
scalar MyScenario.node[194].veinsmobility 	totalDistance 	651.70741491299
scalar MyScenario.node[194].veinsmobility 	totalCO2Emission 	195.40546495929
scalar MyScenario.node[195].appl 	generatedWSMs 	0
scalar MyScenario.node[195].appl 	receivedWSMs 	0
scalar MyScenario.node[195].appl 	generatedBSMs 	100
scalar MyScenario.node[195].appl 	receivedBSMs 	2557
scalar MyScenario.node[195].appl 	generatedWSAs 	0
scalar MyScenario.node[195].appl 	receivedWSAs 	0
scalar MyScenario.node[195].nic.phy80211p 	busyTime 	0.0026613599999999
scalar MyScenario.node[195].nic.mac1609_4 	ReceivedUnicastPackets 	0
scalar MyScenario.node[195].nic.mac1609_4 	ReceivedBroadcasts 	2557
scalar MyScenario.node[195].nic.mac1609_4 	SentPackets 	100
scalar MyScenario.node[195].nic.mac1609_4 	SNIRLostPackets 	2
scalar MyScenario.node[195].nic.mac1609_4 	RXTXLostPackets 	0
scalar MyScenario.node[195].nic.mac1609_4 	TotalLostPackets 	2
scalar MyScenario.node[195].nic.mac1609_4 	DroppedPacketsInMac 	0
scalar MyScenario.node[195].nic.mac1609_4 	TooLittleTime 	0
scalar MyScenario.node[195].nic.mac1609_4 	TimesIntoBackoff 	100
scalar MyScenario.node[195].nic.mac1609_4 	SlotsBackoff 	163
scalar MyScenario.node[195].nic.mac1609_4 	NumInternalContention 	0
scalar MyScenario.node[195].nic.mac1609_4 	totalBusyTime 	0.276532
scalar MyScenario.node[195].veinsmobility 	startTime 	25200
scalar MyScenario.node[195].veinsmobility 	totalTime 	100
scalar MyScenario.node[195].veinsmobility 	stopTime 	25300
scalar MyScenario.node[195].veinsmobility 	minSpeed 	0
scalar MyScenario.node[195].veinsmobility 	maxSpeed 	13.719666473276
scalar MyScenario.node[195].veinsmobility 	totalDistance 	643.28075474196
scalar MyScenario.node[195].veinsmobility 	totalCO2Emission 	206.61970851073
scalar MyScenario.node[405].appl 	generatedWSMs 	0
scalar MyScenario.node[405].appl 	receivedWSMs 	0
scalar MyScenario.node[405].appl 	generatedBSMs 	28
scalar MyScenario.node[405].appl 	receivedBSMs 	241
scalar MyScenario.node[405].appl 	generatedWSAs 	0
scalar MyScenario.node[405].appl 	receivedWSAs 	0
scalar MyScenario.node[405].nic.phy80211p 	busyTime 	0.00089835125448029
scalar MyScenario.node[405].nic.mac1609_4 	ReceivedUnicastPackets 	0
scalar MyScenario.node[405].nic.mac1609_4 	ReceivedBroadcasts 	241
scalar MyScenario.node[405].nic.mac1609_4 	SentPackets 	28
scalar MyScenario.node[405].nic.mac1609_4 	SNIRLostPackets 	0
scalar MyScenario.node[405].nic.mac1609_4 	RXTXLostPackets 	0
scalar MyScenario.node[405].nic.mac1609_4 	TotalLostPackets 	0
scalar MyScenario.node[405].nic.mac1609_4 	DroppedPacketsInMac 	0
scalar MyScenario.node[405].nic.mac1609_4 	TooLittleTime 	0
scalar MyScenario.node[405].nic.mac1609_4 	TimesIntoBackoff 	28
scalar MyScenario.node[405].nic.mac1609_4 	SlotsBackoff 	36
scalar MyScenario.node[405].nic.mac1609_4 	NumInternalContention 	0
scalar MyScenario.node[405].nic.mac1609_4 	totalBusyTime 	0.028004
scalar MyScenario.node[405].veinsmobility 	startTime 	25272.1
scalar MyScenario.node[405].veinsmobility 	totalTime 	27.9
scalar MyScenario.node[405].veinsmobility 	stopTime 	25300
scalar MyScenario.node[405].veinsmobility 	minSpeed 	0
scalar MyScenario.node[405].veinsmobility 	maxSpeed 	12.217254664217
scalar MyScenario.node[405].veinsmobility 	totalDistance 	205.26857352279
scalar MyScenario.node[405].veinsmobility 	totalCO2Emission 	60.693463374393
scalar MyScenario.node[196].appl 	generatedWSMs 	0
scalar MyScenario.node[196].appl 	receivedWSMs 	0
scalar MyScenario.node[196].appl 	generatedBSMs 	100
scalar MyScenario.node[196].appl 	receivedBSMs 	2497
scalar MyScenario.node[196].appl 	generatedWSAs 	0
scalar MyScenario.node[196].appl 	receivedWSAs 	0
scalar MyScenario.node[196].nic.phy80211p 	busyTime 	0.0026155999999999
scalar MyScenario.node[196].nic.mac1609_4 	ReceivedUnicastPackets 	0
scalar MyScenario.node[196].nic.mac1609_4 	ReceivedBroadcasts 	2497
scalar MyScenario.node[196].nic.mac1609_4 	SentPackets 	100
scalar MyScenario.node[196].nic.mac1609_4 	SNIRLostPackets 	18
scalar MyScenario.node[196].nic.mac1609_4 	RXTXLostPackets 	0
scalar MyScenario.node[196].nic.mac1609_4 	TotalLostPackets 	18
scalar MyScenario.node[196].nic.mac1609_4 	DroppedPacketsInMac 	0
scalar MyScenario.node[196].nic.mac1609_4 	TooLittleTime 	0
scalar MyScenario.node[196].nic.mac1609_4 	TimesIntoBackoff 	100
scalar MyScenario.node[196].nic.mac1609_4 	SlotsBackoff 	143
scalar MyScenario.node[196].nic.mac1609_4 	NumInternalContention 	0
scalar MyScenario.node[196].nic.mac1609_4 	totalBusyTime 	0.271387491973
scalar MyScenario.node[196].veinsmobility 	startTime 	25200
scalar MyScenario.node[196].veinsmobility 	totalTime 	100
scalar MyScenario.node[196].veinsmobility 	stopTime 	25300
scalar MyScenario.node[196].veinsmobility 	minSpeed 	4.5364353512955e-14
scalar MyScenario.node[196].veinsmobility 	maxSpeed 	12.717931964908
scalar MyScenario.node[196].veinsmobility 	totalDistance 	723.81194450829
scalar MyScenario.node[196].veinsmobility 	totalCO2Emission 	220.08030637641
scalar MyScenario.node[456].appl 	generatedWSMs 	0
scalar MyScenario.node[456].appl 	receivedWSMs 	0
scalar MyScenario.node[456].appl 	generatedBSMs 	10
scalar MyScenario.node[456].appl 	receivedBSMs 	178
scalar MyScenario.node[456].appl 	generatedWSAs 	0
scalar MyScenario.node[456].appl 	receivedWSAs 	0
scalar MyScenario.node[456].nic.phy80211p 	busyTime 	0.0019283333333325
scalar MyScenario.node[456].nic.mac1609_4 	ReceivedUnicastPackets 	0
scalar MyScenario.node[456].nic.mac1609_4 	ReceivedBroadcasts 	178
scalar MyScenario.node[456].nic.mac1609_4 	SentPackets 	10
scalar MyScenario.node[456].nic.mac1609_4 	SNIRLostPackets 	0
scalar MyScenario.node[456].nic.mac1609_4 	RXTXLostPackets 	0
scalar MyScenario.node[456].nic.mac1609_4 	TotalLostPackets 	0
scalar MyScenario.node[456].nic.mac1609_4 	DroppedPacketsInMac 	0
scalar MyScenario.node[456].nic.mac1609_4 	TooLittleTime 	0
scalar MyScenario.node[456].nic.mac1609_4 	TimesIntoBackoff 	10
scalar MyScenario.node[456].nic.mac1609_4 	SlotsBackoff 	10
scalar MyScenario.node[456].nic.mac1609_4 	NumInternalContention 	0
scalar MyScenario.node[456].nic.mac1609_4 	totalBusyTime 	0.019562
scalar MyScenario.node[456].veinsmobility 	startTime 	25290.4
scalar MyScenario.node[456].veinsmobility 	totalTime 	9.6
scalar MyScenario.node[456].veinsmobility 	stopTime 	25300
scalar MyScenario.node[456].veinsmobility 	minSpeed 	11.945433067033
scalar MyScenario.node[456].veinsmobility 	maxSpeed 	14.73879982212
scalar MyScenario.node[456].veinsmobility 	totalDistance 	123.01659350112
scalar MyScenario.node[456].veinsmobility 	totalCO2Emission 	30.353860216213
scalar MyScenario.node[449].appl 	generatedWSMs 	0
scalar MyScenario.node[449].appl 	receivedWSMs 	0
scalar MyScenario.node[449].appl 	generatedBSMs 	12
scalar MyScenario.node[449].appl 	receivedBSMs 	140
scalar MyScenario.node[449].appl 	generatedWSAs 	0
scalar MyScenario.node[449].appl 	receivedWSAs 	0
scalar MyScenario.node[449].nic.phy80211p 	busyTime 	0.0012884955752212
scalar MyScenario.node[449].nic.mac1609_4 	ReceivedUnicastPackets 	0
scalar MyScenario.node[449].nic.mac1609_4 	ReceivedBroadcasts 	140
scalar MyScenario.node[449].nic.mac1609_4 	SentPackets 	12
scalar MyScenario.node[449].nic.mac1609_4 	SNIRLostPackets 	0
scalar MyScenario.node[449].nic.mac1609_4 	RXTXLostPackets 	0
scalar MyScenario.node[449].nic.mac1609_4 	TotalLostPackets 	0
scalar MyScenario.node[449].nic.mac1609_4 	DroppedPacketsInMac 	0
scalar MyScenario.node[449].nic.mac1609_4 	TooLittleTime 	0
scalar MyScenario.node[449].nic.mac1609_4 	TimesIntoBackoff 	12
scalar MyScenario.node[449].nic.mac1609_4 	SlotsBackoff 	20
scalar MyScenario.node[449].nic.mac1609_4 	NumInternalContention 	0
scalar MyScenario.node[449].nic.mac1609_4 	totalBusyTime 	0.01582
scalar MyScenario.node[449].veinsmobility 	startTime 	25288.7
scalar MyScenario.node[449].veinsmobility 	totalTime 	11.3
scalar MyScenario.node[449].veinsmobility 	stopTime 	25300
scalar MyScenario.node[449].veinsmobility 	minSpeed 	10.817285190758
scalar MyScenario.node[449].veinsmobility 	maxSpeed 	16.933753481382
scalar MyScenario.node[449].veinsmobility 	totalDistance 	184.55108392423
scalar MyScenario.node[449].veinsmobility 	totalCO2Emission 	26.83548143733
scalar MyScenario.node[198].appl 	generatedWSMs 	0
scalar MyScenario.node[198].appl 	receivedWSMs 	0
scalar MyScenario.node[198].appl 	generatedBSMs 	100
scalar MyScenario.node[198].appl 	receivedBSMs 	2328
scalar MyScenario.node[198].appl 	generatedWSAs 	0
scalar MyScenario.node[198].appl 	receivedWSAs 	0
scalar MyScenario.node[198].nic.phy80211p 	busyTime 	0.00242112
scalar MyScenario.node[198].nic.mac1609_4 	ReceivedUnicastPackets 	0
scalar MyScenario.node[198].nic.mac1609_4 	ReceivedBroadcasts 	2328
scalar MyScenario.node[198].nic.mac1609_4 	SentPackets 	100
scalar MyScenario.node[198].nic.mac1609_4 	SNIRLostPackets 	0
scalar MyScenario.node[198].nic.mac1609_4 	RXTXLostPackets 	0
scalar MyScenario.node[198].nic.mac1609_4 	TotalLostPackets 	0
scalar MyScenario.node[198].nic.mac1609_4 	DroppedPacketsInMac 	0
scalar MyScenario.node[198].nic.mac1609_4 	TooLittleTime 	0
scalar MyScenario.node[198].nic.mac1609_4 	TimesIntoBackoff 	100
scalar MyScenario.node[198].nic.mac1609_4 	SlotsBackoff 	168
scalar MyScenario.node[198].nic.mac1609_4 	NumInternalContention 	0
scalar MyScenario.node[198].nic.mac1609_4 	totalBusyTime 	0.252612
scalar MyScenario.node[198].veinsmobility 	startTime 	25200
scalar MyScenario.node[198].veinsmobility 	totalTime 	100
scalar MyScenario.node[198].veinsmobility 	stopTime 	25300
scalar MyScenario.node[198].veinsmobility 	minSpeed 	4.5361501685337e-14
scalar MyScenario.node[198].veinsmobility 	maxSpeed 	15.02991583942
scalar MyScenario.node[198].veinsmobility 	totalDistance 	526.13637097267
scalar MyScenario.node[198].veinsmobility 	totalCO2Emission 	217.47588541654
scalar MyScenario.node[199].appl 	generatedWSMs 	0
scalar MyScenario.node[199].appl 	receivedWSMs 	0
scalar MyScenario.node[199].appl 	generatedBSMs 	100
scalar MyScenario.node[199].appl 	receivedBSMs 	1730
scalar MyScenario.node[199].appl 	generatedWSAs 	0
scalar MyScenario.node[199].appl 	receivedWSAs 	0
scalar MyScenario.node[199].nic.phy80211p 	busyTime 	0.0017992
scalar MyScenario.node[199].nic.mac1609_4 	ReceivedUnicastPackets 	0
scalar MyScenario.node[199].nic.mac1609_4 	ReceivedBroadcasts 	1730
scalar MyScenario.node[199].nic.mac1609_4 	SentPackets 	100
scalar MyScenario.node[199].nic.mac1609_4 	SNIRLostPackets 	0
scalar MyScenario.node[199].nic.mac1609_4 	RXTXLostPackets 	0
scalar MyScenario.node[199].nic.mac1609_4 	TotalLostPackets 	0
scalar MyScenario.node[199].nic.mac1609_4 	DroppedPacketsInMac 	0
scalar MyScenario.node[199].nic.mac1609_4 	TooLittleTime 	0
scalar MyScenario.node[199].nic.mac1609_4 	TimesIntoBackoff 	100
scalar MyScenario.node[199].nic.mac1609_4 	SlotsBackoff 	162
scalar MyScenario.node[199].nic.mac1609_4 	NumInternalContention 	0
scalar MyScenario.node[199].nic.mac1609_4 	totalBusyTime 	0.19042
scalar MyScenario.node[199].veinsmobility 	startTime 	25200
scalar MyScenario.node[199].veinsmobility 	totalTime 	100
scalar MyScenario.node[199].veinsmobility 	stopTime 	25300
scalar MyScenario.node[199].veinsmobility 	minSpeed 	0.83406091776976
scalar MyScenario.node[199].veinsmobility 	maxSpeed 	19.416848665195
scalar MyScenario.node[199].veinsmobility 	totalDistance 	1597.5313303691
scalar MyScenario.node[199].veinsmobility 	totalCO2Emission 	307.1977285902
scalar MyScenario.node[466].appl 	generatedWSMs 	0
scalar MyScenario.node[466].appl 	receivedWSMs 	0
scalar MyScenario.node[466].appl 	generatedBSMs 	8
scalar MyScenario.node[466].appl 	receivedBSMs 	5
scalar MyScenario.node[466].appl 	generatedWSAs 	0
scalar MyScenario.node[466].appl 	receivedWSAs 	0
scalar MyScenario.node[466].nic.phy80211p 	busyTime 	6.6666666666667e-05
scalar MyScenario.node[466].nic.mac1609_4 	ReceivedUnicastPackets 	0
scalar MyScenario.node[466].nic.mac1609_4 	ReceivedBroadcasts 	5
scalar MyScenario.node[466].nic.mac1609_4 	SentPackets 	8
scalar MyScenario.node[466].nic.mac1609_4 	SNIRLostPackets 	0
scalar MyScenario.node[466].nic.mac1609_4 	RXTXLostPackets 	0
scalar MyScenario.node[466].nic.mac1609_4 	TotalLostPackets 	0
scalar MyScenario.node[466].nic.mac1609_4 	DroppedPacketsInMac 	0
scalar MyScenario.node[466].nic.mac1609_4 	TooLittleTime 	0
scalar MyScenario.node[466].nic.mac1609_4 	TimesIntoBackoff 	8
scalar MyScenario.node[466].nic.mac1609_4 	SlotsBackoff 	8
scalar MyScenario.node[466].nic.mac1609_4 	NumInternalContention 	0
scalar MyScenario.node[466].nic.mac1609_4 	totalBusyTime 	0.00136
scalar MyScenario.node[466].veinsmobility 	startTime 	25292.2
scalar MyScenario.node[466].veinsmobility 	totalTime 	7.8
scalar MyScenario.node[466].veinsmobility 	stopTime 	25300
scalar MyScenario.node[466].veinsmobility 	minSpeed 	13.37183643008
scalar MyScenario.node[466].veinsmobility 	maxSpeed 	13.501236901133
scalar MyScenario.node[466].veinsmobility 	totalDistance 	104.80760782562
scalar MyScenario.node[466].veinsmobility 	totalCO2Emission 	17.263915606135
