version 2
run AttackerType1-22-20180205-16:55:28-101889
attr configname AttackerType1
attr datetime 20180205-16:55:28
attr experiment AttackerType1
attr inifile omnetpp_22.ini
attr iterationvars "$start=5, $0=0.2"
attr iterationvarsf start=5,0.2-
attr measurement "$start=5, $0=0.2"
attr network MyScenario
attr processid 101889
attr repetition 2
attr replication #2
attr resultdir results
attr runnumber 22
attr seedset 2
attr start 5
param **.**.**.debug false
param **.**.nic.**.debug false
param **.coreDebug false
param **.debug false
param *.**.nic.mac1609_4.bitrate 6Mbps
param *.**.nic.mac1609_4.txPower 20mW
param *.**.nic.mac1609_4.useServiceChannel false
param *.**.nic.phy80211p.analogueModels "xmldoc(\"config.xml\")"
param *.**.nic.phy80211p.antenna "xmldoc(\"antenna.xml\", \"/root/Antenna[@id='monopole']\")"
param *.**.nic.phy80211p.decider "xmldoc(\"config.xml\")"
param *.**.nic.phy80211p.sensitivity -89dBm
param *.**.nic.phy80211p.thermalNoise -110dBm
param *.**.nic.phy80211p.usePropagationDelay true
param *.**.nic.phy80211p.useThermalNoise true
param *.**.veinsmobility.x 0
param *.**.veinsmobility.y 0
param *.**.veinsmobility.z 1.895
param *.**.veinsmobilityType.debug false
param *.annotations.draw false
param *.connectionManager.drawMaxIntfDist false
param *.connectionManager.maxInterfDist 2600m
param *.connectionManager.sendDirect true
param *.manager.autoShutdown true
param *.manager.configFile "\"dua.static.sumocfg\""
param *.manager.firstStepAt 5h
param *.manager.host "\"localhost\""
param *.manager.launchConfig "xmldoc(\"luxembourg.launchd.xml\")"
param *.manager.roiRects "\"2300,5400-6300,6300\""
param *.manager.seed 2
param *.manager.updateInterval 0.1s
param *.node[*].appl.attackerProbability 0.2
param *.node[*].appl.attackerType 1
param *.node[*].appl.attackerXPos 5560
param *.node[*].appl.attackerYPos 5820
param *.node[*].appl.beaconInterval 1s
param *.node[*].appl.dataOnSch false
param *.node[*].appl.headerLength "80 bit"
param *.node[*].appl.sendBeacons true
param *.node[*].appl.traceGroundTruthJSONFile "\"GroundTruthJSONlog\""
param *.node[*].appl.traceJSONFile "\"JSONlog-\""
param *.node[*].applType "\"AttackerApp\""
param *.obstacles.debug false
param *.obstacles.obstacles "xmldoc(\"config.xml\", \"//AnalogueModel[@type='SimpleObstacleShadowing']/obstacles\")"
param *.playgroundSizeX 13640m
param *.playgroundSizeY 11500m
param *.playgroundSizeZ 50m

scalar _runattrs_ 	start 	5
scalar MyScenario.node[8].appl 	generatedWSMs 	0
scalar MyScenario.node[8].appl 	receivedWSMs 	0
scalar MyScenario.node[8].appl 	generatedBSMs 	4
scalar MyScenario.node[8].appl 	receivedBSMs 	61
scalar MyScenario.node[8].appl 	generatedWSAs 	0
scalar MyScenario.node[8].appl 	receivedWSAs 	0
scalar MyScenario.node[8].nic.phy80211p 	busyTime 	0.0013216666666667
scalar MyScenario.node[8].nic.mac1609_4 	ReceivedUnicastPackets 	0
scalar MyScenario.node[8].nic.mac1609_4 	ReceivedBroadcasts 	61
scalar MyScenario.node[8].nic.mac1609_4 	SentPackets 	4
scalar MyScenario.node[8].nic.mac1609_4 	SNIRLostPackets 	0
scalar MyScenario.node[8].nic.mac1609_4 	RXTXLostPackets 	0
scalar MyScenario.node[8].nic.mac1609_4 	TotalLostPackets 	0
scalar MyScenario.node[8].nic.mac1609_4 	DroppedPacketsInMac 	0
scalar MyScenario.node[8].nic.mac1609_4 	TooLittleTime 	0
scalar MyScenario.node[8].nic.mac1609_4 	TimesIntoBackoff 	4
scalar MyScenario.node[8].nic.mac1609_4 	SlotsBackoff 	6
scalar MyScenario.node[8].nic.mac1609_4 	NumInternalContention 	0
scalar MyScenario.node[8].nic.mac1609_4 	totalBusyTime 	0.006764
scalar MyScenario.node[8].veinsmobility 	startTime 	18000
scalar MyScenario.node[8].veinsmobility 	totalTime 	4.7
scalar MyScenario.node[8].veinsmobility 	stopTime 	18004.8
scalar MyScenario.node[8].veinsmobility 	minSpeed 	32.619442222301
scalar MyScenario.node[8].veinsmobility 	maxSpeed 	32.743860619085
scalar MyScenario.node[8].veinsmobility 	totalDistance 	153.75408614121
scalar MyScenario.node[8].veinsmobility 	totalCO2Emission 	27.240137527909
scalar MyScenario.node[7].appl 	generatedWSMs 	0
scalar MyScenario.node[7].appl 	receivedWSMs 	0
scalar MyScenario.node[7].appl 	generatedBSMs 	6
scalar MyScenario.node[7].appl 	receivedBSMs 	69
scalar MyScenario.node[7].appl 	generatedWSAs 	0
scalar MyScenario.node[7].appl 	receivedWSAs 	0
scalar MyScenario.node[7].nic.phy80211p 	busyTime 	0.001176393442623
scalar MyScenario.node[7].nic.mac1609_4 	ReceivedUnicastPackets 	0
scalar MyScenario.node[7].nic.mac1609_4 	ReceivedBroadcasts 	69
scalar MyScenario.node[7].nic.mac1609_4 	SentPackets 	6
scalar MyScenario.node[7].nic.mac1609_4 	SNIRLostPackets 	0
scalar MyScenario.node[7].nic.mac1609_4 	RXTXLostPackets 	0
scalar MyScenario.node[7].nic.mac1609_4 	TotalLostPackets 	0
scalar MyScenario.node[7].nic.mac1609_4 	DroppedPacketsInMac 	0
scalar MyScenario.node[7].nic.mac1609_4 	TooLittleTime 	0
scalar MyScenario.node[7].nic.mac1609_4 	TimesIntoBackoff 	6
scalar MyScenario.node[7].nic.mac1609_4 	SlotsBackoff 	8
scalar MyScenario.node[7].nic.mac1609_4 	NumInternalContention 	0
scalar MyScenario.node[7].nic.mac1609_4 	totalBusyTime 	0.007806
scalar MyScenario.node[7].veinsmobility 	startTime 	18000
scalar MyScenario.node[7].veinsmobility 	totalTime 	6
scalar MyScenario.node[7].veinsmobility 	stopTime 	18006.1
scalar MyScenario.node[7].veinsmobility 	minSpeed 	32.566134396329
scalar MyScenario.node[7].veinsmobility 	maxSpeed 	32.789926583767
scalar MyScenario.node[7].veinsmobility 	totalDistance 	196.27017030321
scalar MyScenario.node[7].veinsmobility 	totalCO2Emission 	37.431302674885
scalar MyScenario.node[9].appl 	generatedWSMs 	0
scalar MyScenario.node[9].appl 	receivedWSMs 	0
scalar MyScenario.node[9].appl 	generatedBSMs 	7
scalar MyScenario.node[9].appl 	receivedBSMs 	102
scalar MyScenario.node[9].appl 	generatedWSAs 	0
scalar MyScenario.node[9].appl 	receivedWSAs 	0
scalar MyScenario.node[9].nic.phy80211p 	busyTime 	0.0014531506849315
scalar MyScenario.node[9].nic.mac1609_4 	ReceivedUnicastPackets 	0
scalar MyScenario.node[9].nic.mac1609_4 	ReceivedBroadcasts 	102
scalar MyScenario.node[9].nic.mac1609_4 	SentPackets 	7
scalar MyScenario.node[9].nic.mac1609_4 	SNIRLostPackets 	0
scalar MyScenario.node[9].nic.mac1609_4 	RXTXLostPackets 	0
scalar MyScenario.node[9].nic.mac1609_4 	TotalLostPackets 	0
scalar MyScenario.node[9].nic.mac1609_4 	DroppedPacketsInMac 	0
scalar MyScenario.node[9].nic.mac1609_4 	TooLittleTime 	0
scalar MyScenario.node[9].nic.mac1609_4 	TimesIntoBackoff 	7
scalar MyScenario.node[9].nic.mac1609_4 	SlotsBackoff 	11
scalar MyScenario.node[9].nic.mac1609_4 	NumInternalContention 	0
scalar MyScenario.node[9].nic.mac1609_4 	totalBusyTime 	0.011343
scalar MyScenario.node[9].veinsmobility 	startTime 	18000
scalar MyScenario.node[9].veinsmobility 	totalTime 	7.2
scalar MyScenario.node[9].veinsmobility 	stopTime 	18007.3
scalar MyScenario.node[9].veinsmobility 	minSpeed 	32.612454531121
scalar MyScenario.node[9].veinsmobility 	maxSpeed 	33.013903961376
scalar MyScenario.node[9].veinsmobility 	totalDistance 	235.78248996649
scalar MyScenario.node[9].veinsmobility 	totalCO2Emission 	58.305010309081
scalar MyScenario.node[2].appl 	generatedWSMs 	0
scalar MyScenario.node[2].appl 	receivedWSMs 	0
scalar MyScenario.node[2].appl 	generatedBSMs 	8
scalar MyScenario.node[2].appl 	receivedBSMs 	63
scalar MyScenario.node[2].appl 	generatedWSAs 	0
scalar MyScenario.node[2].appl 	receivedWSAs 	0
scalar MyScenario.node[2].nic.phy80211p 	busyTime 	0.00082936708860759
scalar MyScenario.node[2].nic.mac1609_4 	ReceivedUnicastPackets 	0
scalar MyScenario.node[2].nic.mac1609_4 	ReceivedBroadcasts 	63
scalar MyScenario.node[2].nic.mac1609_4 	SentPackets 	8
scalar MyScenario.node[2].nic.mac1609_4 	SNIRLostPackets 	0
scalar MyScenario.node[2].nic.mac1609_4 	RXTXLostPackets 	0
scalar MyScenario.node[2].nic.mac1609_4 	TotalLostPackets 	0
scalar MyScenario.node[2].nic.mac1609_4 	DroppedPacketsInMac 	0
scalar MyScenario.node[2].nic.mac1609_4 	TooLittleTime 	0
scalar MyScenario.node[2].nic.mac1609_4 	TimesIntoBackoff 	8
scalar MyScenario.node[2].nic.mac1609_4 	SlotsBackoff 	17
scalar MyScenario.node[2].nic.mac1609_4 	NumInternalContention 	0
scalar MyScenario.node[2].nic.mac1609_4 	totalBusyTime 	0.007392
scalar MyScenario.node[2].veinsmobility 	startTime 	18000
scalar MyScenario.node[2].veinsmobility 	totalTime 	7.8
scalar MyScenario.node[2].veinsmobility 	stopTime 	18007.9
scalar MyScenario.node[2].veinsmobility 	minSpeed 	29.691609408558
scalar MyScenario.node[2].veinsmobility 	maxSpeed 	29.828545263144
scalar MyScenario.node[2].veinsmobility 	totalDistance 	231.91640652827
scalar MyScenario.node[2].veinsmobility 	totalCO2Emission 	38.44497799798
scalar MyScenario.node[34].appl 	generatedWSMs 	0
scalar MyScenario.node[34].appl 	receivedWSMs 	0
scalar MyScenario.node[34].appl 	generatedBSMs 	10
scalar MyScenario.node[34].appl 	receivedBSMs 	103
scalar MyScenario.node[34].appl 	generatedWSAs 	0
scalar MyScenario.node[34].appl 	receivedWSAs 	0
scalar MyScenario.node[34].nic.phy80211p 	busyTime 	0.0011275789473684
scalar MyScenario.node[34].nic.mac1609_4 	ReceivedUnicastPackets 	0
scalar MyScenario.node[34].nic.mac1609_4 	ReceivedBroadcasts 	103
scalar MyScenario.node[34].nic.mac1609_4 	SentPackets 	10
scalar MyScenario.node[34].nic.mac1609_4 	SNIRLostPackets 	0
scalar MyScenario.node[34].nic.mac1609_4 	RXTXLostPackets 	0
scalar MyScenario.node[34].nic.mac1609_4 	TotalLostPackets 	0
scalar MyScenario.node[34].nic.mac1609_4 	DroppedPacketsInMac 	0
scalar MyScenario.node[34].nic.mac1609_4 	TooLittleTime 	0
scalar MyScenario.node[34].nic.mac1609_4 	TimesIntoBackoff 	10
scalar MyScenario.node[34].nic.mac1609_4 	SlotsBackoff 	16
scalar MyScenario.node[34].nic.mac1609_4 	NumInternalContention 	0
scalar MyScenario.node[34].nic.mac1609_4 	totalBusyTime 	0.011762
scalar MyScenario.node[34].veinsmobility 	startTime 	18000
scalar MyScenario.node[34].veinsmobility 	totalTime 	9.4
scalar MyScenario.node[34].veinsmobility 	stopTime 	18009.5
scalar MyScenario.node[34].veinsmobility 	minSpeed 	0.69894880507254
scalar MyScenario.node[34].veinsmobility 	maxSpeed 	19.370748090295
scalar MyScenario.node[34].veinsmobility 	totalDistance 	96.48388443824
scalar MyScenario.node[34].veinsmobility 	totalCO2Emission 	62.26231978531
scalar MyScenario.node[22].appl 	generatedWSMs 	0
scalar MyScenario.node[22].appl 	receivedWSMs 	0
scalar MyScenario.node[22].appl 	generatedBSMs 	11
scalar MyScenario.node[22].appl 	receivedBSMs 	14
scalar MyScenario.node[22].appl 	generatedWSAs 	0
scalar MyScenario.node[22].appl 	receivedWSAs 	0
scalar MyScenario.node[22].nic.phy80211p 	busyTime 	0.00013236363636364
scalar MyScenario.node[22].nic.mac1609_4 	ReceivedUnicastPackets 	0
scalar MyScenario.node[22].nic.mac1609_4 	ReceivedBroadcasts 	14
scalar MyScenario.node[22].nic.mac1609_4 	SentPackets 	11
scalar MyScenario.node[22].nic.mac1609_4 	SNIRLostPackets 	0
scalar MyScenario.node[22].nic.mac1609_4 	RXTXLostPackets 	0
scalar MyScenario.node[22].nic.mac1609_4 	TotalLostPackets 	0
scalar MyScenario.node[22].nic.mac1609_4 	DroppedPacketsInMac 	0
scalar MyScenario.node[22].nic.mac1609_4 	TooLittleTime 	0
scalar MyScenario.node[22].nic.mac1609_4 	TimesIntoBackoff 	11
scalar MyScenario.node[22].nic.mac1609_4 	SlotsBackoff 	9
scalar MyScenario.node[22].nic.mac1609_4 	NumInternalContention 	0
scalar MyScenario.node[22].nic.mac1609_4 	totalBusyTime 	0.002611
scalar MyScenario.node[22].veinsmobility 	startTime 	18000
scalar MyScenario.node[22].veinsmobility 	totalTime 	10.9
scalar MyScenario.node[22].veinsmobility 	stopTime 	18011
scalar MyScenario.node[22].veinsmobility 	minSpeed 	0.25474720515245
scalar MyScenario.node[22].veinsmobility 	maxSpeed 	13.732802244558
scalar MyScenario.node[22].veinsmobility 	totalDistance 	102.93018158033
scalar MyScenario.node[22].veinsmobility 	totalCO2Emission 	42.106609556252
scalar MyScenario.node[21].appl 	generatedWSMs 	0
scalar MyScenario.node[21].appl 	receivedWSMs 	0
scalar MyScenario.node[21].appl 	generatedBSMs 	11
scalar MyScenario.node[21].appl 	receivedBSMs 	177
scalar MyScenario.node[21].appl 	generatedWSAs 	0
scalar MyScenario.node[21].appl 	receivedWSAs 	0
scalar MyScenario.node[21].nic.phy80211p 	busyTime 	0.0016006956521739
scalar MyScenario.node[21].nic.mac1609_4 	ReceivedUnicastPackets 	0
scalar MyScenario.node[21].nic.mac1609_4 	ReceivedBroadcasts 	177
scalar MyScenario.node[21].nic.mac1609_4 	SentPackets 	11
scalar MyScenario.node[21].nic.mac1609_4 	SNIRLostPackets 	0
scalar MyScenario.node[21].nic.mac1609_4 	RXTXLostPackets 	0
scalar MyScenario.node[21].nic.mac1609_4 	TotalLostPackets 	0
scalar MyScenario.node[21].nic.mac1609_4 	DroppedPacketsInMac 	0
scalar MyScenario.node[21].nic.mac1609_4 	TooLittleTime 	0
scalar MyScenario.node[21].nic.mac1609_4 	TimesIntoBackoff 	11
scalar MyScenario.node[21].nic.mac1609_4 	SlotsBackoff 	14
scalar MyScenario.node[21].nic.mac1609_4 	NumInternalContention 	0
scalar MyScenario.node[21].nic.mac1609_4 	totalBusyTime 	0.019563
scalar MyScenario.node[21].veinsmobility 	startTime 	18000
scalar MyScenario.node[21].veinsmobility 	totalTime 	11.4
scalar MyScenario.node[21].veinsmobility 	stopTime 	18011.5
scalar MyScenario.node[21].veinsmobility 	minSpeed 	39.495241187134
scalar MyScenario.node[21].veinsmobility 	maxSpeed 	41.637098881085
scalar MyScenario.node[21].veinsmobility 	totalDistance 	472.81146625846
scalar MyScenario.node[21].veinsmobility 	totalCO2Emission 	106.21265891001
scalar MyScenario.node[38].appl 	generatedWSMs 	0
scalar MyScenario.node[38].appl 	receivedWSMs 	0
scalar MyScenario.node[38].appl 	generatedBSMs 	17
scalar MyScenario.node[38].appl 	receivedBSMs 	25
scalar MyScenario.node[38].appl 	generatedWSAs 	0
scalar MyScenario.node[38].appl 	receivedWSAs 	0
scalar MyScenario.node[38].nic.phy80211p 	busyTime 	0.00015950920245399
scalar MyScenario.node[38].nic.mac1609_4 	ReceivedUnicastPackets 	0
scalar MyScenario.node[38].nic.mac1609_4 	ReceivedBroadcasts 	25
scalar MyScenario.node[38].nic.mac1609_4 	SentPackets 	17
scalar MyScenario.node[38].nic.mac1609_4 	SNIRLostPackets 	0
scalar MyScenario.node[38].nic.mac1609_4 	RXTXLostPackets 	0
scalar MyScenario.node[38].nic.mac1609_4 	TotalLostPackets 	0
scalar MyScenario.node[38].nic.mac1609_4 	DroppedPacketsInMac 	0
scalar MyScenario.node[38].nic.mac1609_4 	TooLittleTime 	0
scalar MyScenario.node[38].nic.mac1609_4 	TimesIntoBackoff 	17
scalar MyScenario.node[38].nic.mac1609_4 	SlotsBackoff 	27
scalar MyScenario.node[38].nic.mac1609_4 	NumInternalContention 	0
scalar MyScenario.node[38].nic.mac1609_4 	totalBusyTime 	0.004385
scalar MyScenario.node[38].veinsmobility 	startTime 	18000
scalar MyScenario.node[38].veinsmobility 	totalTime 	16.2
scalar MyScenario.node[38].veinsmobility 	stopTime 	18016.3
scalar MyScenario.node[38].veinsmobility 	minSpeed 	3.3231386797908
scalar MyScenario.node[38].veinsmobility 	maxSpeed 	16.943249470508
scalar MyScenario.node[38].veinsmobility 	totalDistance 	193.62433463713
scalar MyScenario.node[38].veinsmobility 	totalCO2Emission 	52.849668658274
scalar MyScenario.node[53].appl 	generatedWSMs 	0
scalar MyScenario.node[53].appl 	receivedWSMs 	0
scalar MyScenario.node[53].appl 	generatedBSMs 	5
scalar MyScenario.node[53].appl 	receivedBSMs 	14
scalar MyScenario.node[53].appl 	generatedWSAs 	0
scalar MyScenario.node[53].appl 	receivedWSAs 	0
scalar MyScenario.node[53].nic.phy80211p 	busyTime 	0.00029714285714274
scalar MyScenario.node[53].nic.mac1609_4 	ReceivedUnicastPackets 	0
scalar MyScenario.node[53].nic.mac1609_4 	ReceivedBroadcasts 	14
scalar MyScenario.node[53].nic.mac1609_4 	SentPackets 	5
scalar MyScenario.node[53].nic.mac1609_4 	SNIRLostPackets 	0
scalar MyScenario.node[53].nic.mac1609_4 	RXTXLostPackets 	0
scalar MyScenario.node[53].nic.mac1609_4 	TotalLostPackets 	0
scalar MyScenario.node[53].nic.mac1609_4 	DroppedPacketsInMac 	0
scalar MyScenario.node[53].nic.mac1609_4 	TooLittleTime 	0
scalar MyScenario.node[53].nic.mac1609_4 	TimesIntoBackoff 	5
scalar MyScenario.node[53].nic.mac1609_4 	SlotsBackoff 	7
scalar MyScenario.node[53].nic.mac1609_4 	NumInternalContention 	0
scalar MyScenario.node[53].nic.mac1609_4 	totalBusyTime 	0.001981
scalar MyScenario.node[53].veinsmobility 	startTime 	18011.6
scalar MyScenario.node[53].veinsmobility 	totalTime 	4.8
scalar MyScenario.node[53].veinsmobility 	stopTime 	18016.5
scalar MyScenario.node[53].veinsmobility 	minSpeed 	13.558812420213
scalar MyScenario.node[53].veinsmobility 	maxSpeed 	13.676035785632
scalar MyScenario.node[53].veinsmobility 	totalDistance 	65.257781603126
scalar MyScenario.node[53].veinsmobility 	totalCO2Emission 	10.448818417912
scalar MyScenario.node[1].appl 	generatedWSMs 	0
scalar MyScenario.node[1].appl 	receivedWSMs 	0
scalar MyScenario.node[1].appl 	generatedBSMs 	17
scalar MyScenario.node[1].appl 	receivedBSMs 	203
scalar MyScenario.node[1].appl 	generatedWSAs 	0
scalar MyScenario.node[1].appl 	receivedWSAs 	0
scalar MyScenario.node[1].nic.phy80211p 	busyTime 	0.0012203468208092
scalar MyScenario.node[1].nic.mac1609_4 	ReceivedUnicastPackets 	0
scalar MyScenario.node[1].nic.mac1609_4 	ReceivedBroadcasts 	203
scalar MyScenario.node[1].nic.mac1609_4 	SentPackets 	17
scalar MyScenario.node[1].nic.mac1609_4 	SNIRLostPackets 	0
scalar MyScenario.node[1].nic.mac1609_4 	RXTXLostPackets 	0
scalar MyScenario.node[1].nic.mac1609_4 	TotalLostPackets 	0
scalar MyScenario.node[1].nic.mac1609_4 	DroppedPacketsInMac 	0
scalar MyScenario.node[1].nic.mac1609_4 	TooLittleTime 	0
scalar MyScenario.node[1].nic.mac1609_4 	TimesIntoBackoff 	17
scalar MyScenario.node[1].nic.mac1609_4 	SlotsBackoff 	28
scalar MyScenario.node[1].nic.mac1609_4 	NumInternalContention 	0
scalar MyScenario.node[1].nic.mac1609_4 	totalBusyTime 	0.022897
scalar MyScenario.node[1].veinsmobility 	startTime 	18000
scalar MyScenario.node[1].veinsmobility 	totalTime 	17.2
scalar MyScenario.node[1].veinsmobility 	stopTime 	18017.3
scalar MyScenario.node[1].veinsmobility 	minSpeed 	39.143193105106
scalar MyScenario.node[1].veinsmobility 	maxSpeed 	39.292138239693
scalar MyScenario.node[1].veinsmobility 	totalDistance 	674.50138215986
scalar MyScenario.node[1].veinsmobility 	totalCO2Emission 	146.46000205949
scalar MyScenario.node[35].appl 	generatedWSMs 	0
scalar MyScenario.node[35].appl 	receivedWSMs 	0
scalar MyScenario.node[35].appl 	generatedBSMs 	18
scalar MyScenario.node[35].appl 	receivedBSMs 	218
scalar MyScenario.node[35].appl 	generatedWSAs 	0
scalar MyScenario.node[35].appl 	receivedWSAs 	0
scalar MyScenario.node[35].nic.phy80211p 	busyTime 	0.0012389071038251
scalar MyScenario.node[35].nic.mac1609_4 	ReceivedUnicastPackets 	0
scalar MyScenario.node[35].nic.mac1609_4 	ReceivedBroadcasts 	218
scalar MyScenario.node[35].nic.mac1609_4 	SentPackets 	18
scalar MyScenario.node[35].nic.mac1609_4 	SNIRLostPackets 	0
scalar MyScenario.node[35].nic.mac1609_4 	RXTXLostPackets 	0
scalar MyScenario.node[35].nic.mac1609_4 	TotalLostPackets 	0
scalar MyScenario.node[35].nic.mac1609_4 	DroppedPacketsInMac 	0
scalar MyScenario.node[35].nic.mac1609_4 	TooLittleTime 	0
scalar MyScenario.node[35].nic.mac1609_4 	TimesIntoBackoff 	18
scalar MyScenario.node[35].nic.mac1609_4 	SlotsBackoff 	26
scalar MyScenario.node[35].nic.mac1609_4 	NumInternalContention 	0
scalar MyScenario.node[35].nic.mac1609_4 	totalBusyTime 	0.024562
scalar MyScenario.node[35].veinsmobility 	startTime 	18000
scalar MyScenario.node[35].veinsmobility 	totalTime 	18.2
scalar MyScenario.node[35].veinsmobility 	stopTime 	18018.3
scalar MyScenario.node[35].veinsmobility 	minSpeed 	29.880660651466
scalar MyScenario.node[35].veinsmobility 	maxSpeed 	29.999349309001
scalar MyScenario.node[35].veinsmobility 	totalDistance 	545.49135348249
scalar MyScenario.node[35].veinsmobility 	totalCO2Emission 	92.121801662253
scalar MyScenario.node[26].appl 	generatedWSMs 	0
scalar MyScenario.node[26].appl 	receivedWSMs 	0
scalar MyScenario.node[26].appl 	generatedBSMs 	20
scalar MyScenario.node[26].appl 	receivedBSMs 	42
scalar MyScenario.node[26].appl 	generatedWSAs 	0
scalar MyScenario.node[26].appl 	receivedWSAs 	0
scalar MyScenario.node[26].nic.phy80211p 	busyTime 	0.00022060606060606
scalar MyScenario.node[26].nic.mac1609_4 	ReceivedUnicastPackets 	0
scalar MyScenario.node[26].nic.mac1609_4 	ReceivedBroadcasts 	42
scalar MyScenario.node[26].nic.mac1609_4 	SentPackets 	20
scalar MyScenario.node[26].nic.mac1609_4 	SNIRLostPackets 	0
scalar MyScenario.node[26].nic.mac1609_4 	RXTXLostPackets 	0
scalar MyScenario.node[26].nic.mac1609_4 	TotalLostPackets 	0
scalar MyScenario.node[26].nic.mac1609_4 	DroppedPacketsInMac 	0
scalar MyScenario.node[26].nic.mac1609_4 	TooLittleTime 	0
scalar MyScenario.node[26].nic.mac1609_4 	TimesIntoBackoff 	20
scalar MyScenario.node[26].nic.mac1609_4 	SlotsBackoff 	35
scalar MyScenario.node[26].nic.mac1609_4 	NumInternalContention 	0
scalar MyScenario.node[26].nic.mac1609_4 	totalBusyTime 	0.006468
scalar MyScenario.node[26].veinsmobility 	startTime 	18000
scalar MyScenario.node[26].veinsmobility 	totalTime 	19.7
scalar MyScenario.node[26].veinsmobility 	stopTime 	18019.8
scalar MyScenario.node[26].veinsmobility 	minSpeed 	0.26410955732223
scalar MyScenario.node[26].veinsmobility 	maxSpeed 	14.001381483884
scalar MyScenario.node[26].veinsmobility 	totalDistance 	228.30961924387
scalar MyScenario.node[26].veinsmobility 	totalCO2Emission 	63.59625659005
scalar MyScenario.node[49].appl 	generatedWSMs 	0
scalar MyScenario.node[49].appl 	receivedWSMs 	0
scalar MyScenario.node[49].appl 	generatedBSMs 	16
scalar MyScenario.node[49].appl 	receivedBSMs 	27
scalar MyScenario.node[49].appl 	generatedWSAs 	0
scalar MyScenario.node[49].appl 	receivedWSAs 	0
scalar MyScenario.node[49].nic.phy80211p 	busyTime 	0.00018473684210524
scalar MyScenario.node[49].nic.mac1609_4 	ReceivedUnicastPackets 	0
scalar MyScenario.node[49].nic.mac1609_4 	ReceivedBroadcasts 	27
scalar MyScenario.node[49].nic.mac1609_4 	SentPackets 	16
scalar MyScenario.node[49].nic.mac1609_4 	SNIRLostPackets 	0
scalar MyScenario.node[49].nic.mac1609_4 	RXTXLostPackets 	0
scalar MyScenario.node[49].nic.mac1609_4 	TotalLostPackets 	0
scalar MyScenario.node[49].nic.mac1609_4 	DroppedPacketsInMac 	0
scalar MyScenario.node[49].nic.mac1609_4 	TooLittleTime 	0
scalar MyScenario.node[49].nic.mac1609_4 	TimesIntoBackoff 	16
scalar MyScenario.node[49].nic.mac1609_4 	SlotsBackoff 	28
scalar MyScenario.node[49].nic.mac1609_4 	NumInternalContention 	0
scalar MyScenario.node[49].nic.mac1609_4 	totalBusyTime 	0.004488
scalar MyScenario.node[49].veinsmobility 	startTime 	18007.6
scalar MyScenario.node[49].veinsmobility 	totalTime 	15.1
scalar MyScenario.node[49].veinsmobility 	stopTime 	18022.8
scalar MyScenario.node[49].veinsmobility 	minSpeed 	12.485050159691
scalar MyScenario.node[49].veinsmobility 	maxSpeed 	12.6127244056
scalar MyScenario.node[49].veinsmobility 	totalDistance 	189.46378062002
scalar MyScenario.node[49].veinsmobility 	totalCO2Emission 	32.786348535449
scalar MyScenario.node[10].appl 	generatedWSMs 	0
scalar MyScenario.node[10].appl 	receivedWSMs 	0
scalar MyScenario.node[10].appl 	generatedBSMs 	25
scalar MyScenario.node[10].appl 	receivedBSMs 	342
scalar MyScenario.node[10].appl 	generatedWSAs 	0
scalar MyScenario.node[10].appl 	receivedWSAs 	0
scalar MyScenario.node[10].nic.phy80211p 	busyTime 	0.0014517551020408
scalar MyScenario.node[10].nic.mac1609_4 	ReceivedUnicastPackets 	0
scalar MyScenario.node[10].nic.mac1609_4 	ReceivedBroadcasts 	342
scalar MyScenario.node[10].nic.mac1609_4 	SentPackets 	25
scalar MyScenario.node[10].nic.mac1609_4 	SNIRLostPackets 	0
scalar MyScenario.node[10].nic.mac1609_4 	RXTXLostPackets 	0
scalar MyScenario.node[10].nic.mac1609_4 	TotalLostPackets 	0
scalar MyScenario.node[10].nic.mac1609_4 	DroppedPacketsInMac 	0
scalar MyScenario.node[10].nic.mac1609_4 	TooLittleTime 	0
scalar MyScenario.node[10].nic.mac1609_4 	TimesIntoBackoff 	25
scalar MyScenario.node[10].nic.mac1609_4 	SlotsBackoff 	24
scalar MyScenario.node[10].nic.mac1609_4 	NumInternalContention 	0
scalar MyScenario.node[10].nic.mac1609_4 	totalBusyTime 	0.038193
scalar MyScenario.node[10].veinsmobility 	startTime 	18000
scalar MyScenario.node[10].veinsmobility 	totalTime 	24.4
scalar MyScenario.node[10].veinsmobility 	stopTime 	18024.5
scalar MyScenario.node[10].veinsmobility 	minSpeed 	29.880146425813
scalar MyScenario.node[10].veinsmobility 	maxSpeed 	29.999158781329
scalar MyScenario.node[10].veinsmobility 	totalDistance 	730.52118126959
scalar MyScenario.node[10].veinsmobility 	totalCO2Emission 	124.03533734505
scalar MyScenario.node[0].appl 	generatedWSMs 	0
scalar MyScenario.node[0].appl 	receivedWSMs 	0
scalar MyScenario.node[0].appl 	generatedBSMs 	26
scalar MyScenario.node[0].appl 	receivedBSMs 	322
scalar MyScenario.node[0].appl 	generatedWSAs 	0
scalar MyScenario.node[0].appl 	receivedWSAs 	0
scalar MyScenario.node[0].nic.phy80211p 	busyTime 	0.0013236363636364
scalar MyScenario.node[0].nic.mac1609_4 	ReceivedUnicastPackets 	0
scalar MyScenario.node[0].nic.mac1609_4 	ReceivedBroadcasts 	322
scalar MyScenario.node[0].nic.mac1609_4 	SentPackets 	26
scalar MyScenario.node[0].nic.mac1609_4 	SNIRLostPackets 	0
scalar MyScenario.node[0].nic.mac1609_4 	RXTXLostPackets 	0
scalar MyScenario.node[0].nic.mac1609_4 	TotalLostPackets 	0
scalar MyScenario.node[0].nic.mac1609_4 	DroppedPacketsInMac 	0
scalar MyScenario.node[0].nic.mac1609_4 	TooLittleTime 	0
scalar MyScenario.node[0].nic.mac1609_4 	TimesIntoBackoff 	26
scalar MyScenario.node[0].nic.mac1609_4 	SlotsBackoff 	35
scalar MyScenario.node[0].nic.mac1609_4 	NumInternalContention 	0
scalar MyScenario.node[0].nic.mac1609_4 	totalBusyTime 	0.036218
scalar MyScenario.node[0].veinsmobility 	startTime 	18000
scalar MyScenario.node[0].veinsmobility 	totalTime 	25.2
scalar MyScenario.node[0].veinsmobility 	stopTime 	18025.3
scalar MyScenario.node[0].veinsmobility 	minSpeed 	29.880083506862
scalar MyScenario.node[0].veinsmobility 	maxSpeed 	29.999569449993
scalar MyScenario.node[0].veinsmobility 	totalDistance 	753.57379703645
scalar MyScenario.node[0].veinsmobility 	totalCO2Emission 	128.65200730191
scalar MyScenario.node[3].appl 	generatedWSMs 	0
scalar MyScenario.node[3].appl 	receivedWSMs 	0
scalar MyScenario.node[3].appl 	generatedBSMs 	25
scalar MyScenario.node[3].appl 	receivedBSMs 	342
scalar MyScenario.node[3].appl 	generatedWSAs 	0
scalar MyScenario.node[3].appl 	receivedWSAs 	0
scalar MyScenario.node[3].nic.phy80211p 	busyTime 	0.0014058498023715
scalar MyScenario.node[3].nic.mac1609_4 	ReceivedUnicastPackets 	0
scalar MyScenario.node[3].nic.mac1609_4 	ReceivedBroadcasts 	342
scalar MyScenario.node[3].nic.mac1609_4 	SentPackets 	25
scalar MyScenario.node[3].nic.mac1609_4 	SNIRLostPackets 	0
scalar MyScenario.node[3].nic.mac1609_4 	RXTXLostPackets 	0
scalar MyScenario.node[3].nic.mac1609_4 	TotalLostPackets 	0
scalar MyScenario.node[3].nic.mac1609_4 	DroppedPacketsInMac 	0
scalar MyScenario.node[3].nic.mac1609_4 	TooLittleTime 	0
scalar MyScenario.node[3].nic.mac1609_4 	TimesIntoBackoff 	25
scalar MyScenario.node[3].nic.mac1609_4 	SlotsBackoff 	30
scalar MyScenario.node[3].nic.mac1609_4 	NumInternalContention 	0
scalar MyScenario.node[3].nic.mac1609_4 	totalBusyTime 	0.038193
scalar MyScenario.node[3].veinsmobility 	startTime 	18000
scalar MyScenario.node[3].veinsmobility 	totalTime 	25.2
scalar MyScenario.node[3].veinsmobility 	stopTime 	18025.3
scalar MyScenario.node[3].veinsmobility 	minSpeed 	29.885593822993
scalar MyScenario.node[3].veinsmobility 	maxSpeed 	29.999660445362
scalar MyScenario.node[3].veinsmobility 	totalDistance 	755.42446433974
scalar MyScenario.node[3].veinsmobility 	totalCO2Emission 	129.72705887084
scalar MyScenario.node[37].appl 	generatedWSMs 	0
scalar MyScenario.node[37].appl 	receivedWSMs 	0
scalar MyScenario.node[37].appl 	generatedBSMs 	25
scalar MyScenario.node[37].appl 	receivedBSMs 	156
scalar MyScenario.node[37].appl 	generatedWSAs 	0
scalar MyScenario.node[37].appl 	receivedWSAs 	0
scalar MyScenario.node[37].nic.phy80211p 	busyTime 	0.00064126482213439
scalar MyScenario.node[37].nic.mac1609_4 	ReceivedUnicastPackets 	0
scalar MyScenario.node[37].nic.mac1609_4 	ReceivedBroadcasts 	156
scalar MyScenario.node[37].nic.mac1609_4 	SentPackets 	25
scalar MyScenario.node[37].nic.mac1609_4 	SNIRLostPackets 	0
scalar MyScenario.node[37].nic.mac1609_4 	RXTXLostPackets 	0
scalar MyScenario.node[37].nic.mac1609_4 	TotalLostPackets 	0
scalar MyScenario.node[37].nic.mac1609_4 	DroppedPacketsInMac 	0
scalar MyScenario.node[37].nic.mac1609_4 	TooLittleTime 	0
scalar MyScenario.node[37].nic.mac1609_4 	TimesIntoBackoff 	25
scalar MyScenario.node[37].nic.mac1609_4 	SlotsBackoff 	45
scalar MyScenario.node[37].nic.mac1609_4 	NumInternalContention 	0
scalar MyScenario.node[37].nic.mac1609_4 	totalBusyTime 	0.018849
scalar MyScenario.node[37].veinsmobility 	startTime 	18000
scalar MyScenario.node[37].veinsmobility 	totalTime 	25.2
scalar MyScenario.node[37].veinsmobility 	stopTime 	18025.3
scalar MyScenario.node[37].veinsmobility 	minSpeed 	4.6559359464889
scalar MyScenario.node[37].veinsmobility 	maxSpeed 	12.892107488275
scalar MyScenario.node[37].veinsmobility 	totalDistance 	284.59401390393
scalar MyScenario.node[37].veinsmobility 	totalCO2Emission 	55.063339473463
scalar MyScenario.node[6].appl 	generatedWSMs 	0
scalar MyScenario.node[6].appl 	receivedWSMs 	0
scalar MyScenario.node[6].appl 	generatedBSMs 	26
scalar MyScenario.node[6].appl 	receivedBSMs 	341
scalar MyScenario.node[6].appl 	generatedWSAs 	0
scalar MyScenario.node[6].appl 	receivedWSAs 	0
scalar MyScenario.node[6].nic.phy80211p 	busyTime 	0.0013799221789883
scalar MyScenario.node[6].nic.mac1609_4 	ReceivedUnicastPackets 	0
scalar MyScenario.node[6].nic.mac1609_4 	ReceivedBroadcasts 	341
scalar MyScenario.node[6].nic.mac1609_4 	SentPackets 	26
scalar MyScenario.node[6].nic.mac1609_4 	SNIRLostPackets 	0
scalar MyScenario.node[6].nic.mac1609_4 	RXTXLostPackets 	0
scalar MyScenario.node[6].nic.mac1609_4 	TotalLostPackets 	0
scalar MyScenario.node[6].nic.mac1609_4 	DroppedPacketsInMac 	0
scalar MyScenario.node[6].nic.mac1609_4 	TooLittleTime 	0
scalar MyScenario.node[6].nic.mac1609_4 	TimesIntoBackoff 	26
scalar MyScenario.node[6].nic.mac1609_4 	SlotsBackoff 	54
scalar MyScenario.node[6].nic.mac1609_4 	NumInternalContention 	0
scalar MyScenario.node[6].nic.mac1609_4 	totalBusyTime 	0.038194
scalar MyScenario.node[6].veinsmobility 	startTime 	18000
scalar MyScenario.node[6].veinsmobility 	totalTime 	25.6
scalar MyScenario.node[6].veinsmobility 	stopTime 	18025.7
scalar MyScenario.node[6].veinsmobility 	minSpeed 	29.924639562386
scalar MyScenario.node[6].veinsmobility 	maxSpeed 	31.022451242355
scalar MyScenario.node[6].veinsmobility 	totalDistance 	773.68100291008
scalar MyScenario.node[6].veinsmobility 	totalCO2Emission 	131.54694124153
scalar MyScenario.node[4].appl 	generatedWSMs 	0
scalar MyScenario.node[4].appl 	receivedWSMs 	0
scalar MyScenario.node[4].appl 	generatedBSMs 	26
scalar MyScenario.node[4].appl 	receivedBSMs 	355
scalar MyScenario.node[4].appl 	generatedWSAs 	0
scalar MyScenario.node[4].appl 	receivedWSAs 	0
scalar MyScenario.node[4].nic.phy80211p 	busyTime 	0.001387969924812
scalar MyScenario.node[4].nic.mac1609_4 	ReceivedUnicastPackets 	0
scalar MyScenario.node[4].nic.mac1609_4 	ReceivedBroadcasts 	355
scalar MyScenario.node[4].nic.mac1609_4 	SentPackets 	26
scalar MyScenario.node[4].nic.mac1609_4 	SNIRLostPackets 	0
scalar MyScenario.node[4].nic.mac1609_4 	RXTXLostPackets 	0
scalar MyScenario.node[4].nic.mac1609_4 	TotalLostPackets 	0
scalar MyScenario.node[4].nic.mac1609_4 	DroppedPacketsInMac 	0
scalar MyScenario.node[4].nic.mac1609_4 	TooLittleTime 	0
scalar MyScenario.node[4].nic.mac1609_4 	TimesIntoBackoff 	26
scalar MyScenario.node[4].nic.mac1609_4 	SlotsBackoff 	45
scalar MyScenario.node[4].nic.mac1609_4 	NumInternalContention 	0
scalar MyScenario.node[4].nic.mac1609_4 	totalBusyTime 	0.03965
scalar MyScenario.node[4].veinsmobility 	startTime 	18000
scalar MyScenario.node[4].veinsmobility 	totalTime 	26.5
scalar MyScenario.node[4].veinsmobility 	stopTime 	18026.6
scalar MyScenario.node[4].veinsmobility 	minSpeed 	29.831115259266
scalar MyScenario.node[4].veinsmobility 	maxSpeed 	30.0458018361
scalar MyScenario.node[4].veinsmobility 	totalDistance 	794.38999910582
scalar MyScenario.node[4].veinsmobility 	totalCO2Emission 	144.38401767629
scalar MyScenario.node[42].appl 	generatedWSMs 	0
scalar MyScenario.node[42].appl 	receivedWSMs 	0
scalar MyScenario.node[42].appl 	generatedBSMs 	25
scalar MyScenario.node[42].appl 	receivedBSMs 	325
scalar MyScenario.node[42].appl 	generatedWSAs 	0
scalar MyScenario.node[42].appl 	receivedWSAs 	0
scalar MyScenario.node[42].nic.phy80211p 	busyTime 	0.0013684210526317
scalar MyScenario.node[42].nic.mac1609_4 	ReceivedUnicastPackets 	0
scalar MyScenario.node[42].nic.mac1609_4 	ReceivedBroadcasts 	325
scalar MyScenario.node[42].nic.mac1609_4 	SentPackets 	25
scalar MyScenario.node[42].nic.mac1609_4 	SNIRLostPackets 	0
scalar MyScenario.node[42].nic.mac1609_4 	RXTXLostPackets 	0
scalar MyScenario.node[42].nic.mac1609_4 	TotalLostPackets 	0
scalar MyScenario.node[42].nic.mac1609_4 	DroppedPacketsInMac 	0
scalar MyScenario.node[42].nic.mac1609_4 	TooLittleTime 	0
scalar MyScenario.node[42].nic.mac1609_4 	TimesIntoBackoff 	25
scalar MyScenario.node[42].nic.mac1609_4 	SlotsBackoff 	42
scalar MyScenario.node[42].nic.mac1609_4 	NumInternalContention 	0
scalar MyScenario.node[42].nic.mac1609_4 	totalBusyTime 	0.036425
scalar MyScenario.node[42].veinsmobility 	startTime 	18002.9
scalar MyScenario.node[42].veinsmobility 	totalTime 	24.6
scalar MyScenario.node[42].veinsmobility 	stopTime 	18027.6
scalar MyScenario.node[42].veinsmobility 	minSpeed 	34.100382620001
scalar MyScenario.node[42].veinsmobility 	maxSpeed 	36.974923590195
scalar MyScenario.node[42].veinsmobility 	totalDistance 	901.00357879092
scalar MyScenario.node[42].veinsmobility 	totalCO2Emission 	159.22137081161
scalar MyScenario.node[5].appl 	generatedWSMs 	0
scalar MyScenario.node[5].appl 	receivedWSMs 	0
scalar MyScenario.node[5].appl 	generatedBSMs 	28
scalar MyScenario.node[5].appl 	receivedBSMs 	354
scalar MyScenario.node[5].appl 	generatedWSAs 	0
scalar MyScenario.node[5].appl 	receivedWSAs 	0
scalar MyScenario.node[5].nic.phy80211p 	busyTime 	0.0013243165467626
scalar MyScenario.node[5].nic.mac1609_4 	ReceivedUnicastPackets 	0
scalar MyScenario.node[5].nic.mac1609_4 	ReceivedBroadcasts 	354
scalar MyScenario.node[5].nic.mac1609_4 	SentPackets 	28
scalar MyScenario.node[5].nic.mac1609_4 	SNIRLostPackets 	0
scalar MyScenario.node[5].nic.mac1609_4 	RXTXLostPackets 	0
scalar MyScenario.node[5].nic.mac1609_4 	TotalLostPackets 	0
scalar MyScenario.node[5].nic.mac1609_4 	DroppedPacketsInMac 	0
scalar MyScenario.node[5].nic.mac1609_4 	TooLittleTime 	0
scalar MyScenario.node[5].nic.mac1609_4 	TimesIntoBackoff 	28
scalar MyScenario.node[5].nic.mac1609_4 	SlotsBackoff 	43
scalar MyScenario.node[5].nic.mac1609_4 	NumInternalContention 	0
scalar MyScenario.node[5].nic.mac1609_4 	totalBusyTime 	0.039756
scalar MyScenario.node[5].veinsmobility 	startTime 	18000
scalar MyScenario.node[5].veinsmobility 	totalTime 	27.7
scalar MyScenario.node[5].veinsmobility 	stopTime 	18027.8
scalar MyScenario.node[5].veinsmobility 	minSpeed 	29.794615786117
scalar MyScenario.node[5].veinsmobility 	maxSpeed 	30.086957511131
scalar MyScenario.node[5].veinsmobility 	totalDistance 	830.50391729643
scalar MyScenario.node[5].veinsmobility 	totalCO2Emission 	158.96391205441
scalar MyScenario.node[43].appl 	generatedWSMs 	0
scalar MyScenario.node[43].appl 	receivedWSMs 	0
scalar MyScenario.node[43].appl 	generatedBSMs 	25
scalar MyScenario.node[43].appl 	receivedBSMs 	301
scalar MyScenario.node[43].appl 	generatedWSAs 	0
scalar MyScenario.node[43].appl 	receivedWSAs 	0
scalar MyScenario.node[43].nic.phy80211p 	busyTime 	0.0012664516129033
scalar MyScenario.node[43].nic.mac1609_4 	ReceivedUnicastPackets 	0
scalar MyScenario.node[43].nic.mac1609_4 	ReceivedBroadcasts 	301
scalar MyScenario.node[43].nic.mac1609_4 	SentPackets 	25
scalar MyScenario.node[43].nic.mac1609_4 	SNIRLostPackets 	1
scalar MyScenario.node[43].nic.mac1609_4 	RXTXLostPackets 	0
scalar MyScenario.node[43].nic.mac1609_4 	TotalLostPackets 	1
scalar MyScenario.node[43].nic.mac1609_4 	DroppedPacketsInMac 	0
scalar MyScenario.node[43].nic.mac1609_4 	TooLittleTime 	0
scalar MyScenario.node[43].nic.mac1609_4 	TimesIntoBackoff 	25
scalar MyScenario.node[43].nic.mac1609_4 	SlotsBackoff 	36
scalar MyScenario.node[43].nic.mac1609_4 	NumInternalContention 	0
scalar MyScenario.node[43].nic.mac1609_4 	totalBusyTime 	0.034033
scalar MyScenario.node[43].veinsmobility 	startTime 	18003.4
scalar MyScenario.node[43].veinsmobility 	totalTime 	24.7
scalar MyScenario.node[43].veinsmobility 	stopTime 	18028.2
scalar MyScenario.node[43].veinsmobility 	minSpeed 	32.087474117533
scalar MyScenario.node[43].veinsmobility 	maxSpeed 	44.500878900573
scalar MyScenario.node[43].veinsmobility 	totalDistance 	901.65907749704
scalar MyScenario.node[43].veinsmobility 	totalCO2Emission 	126.60819165199
scalar MyScenario.node[51].appl 	generatedWSMs 	0
scalar MyScenario.node[51].appl 	receivedWSMs 	0
scalar MyScenario.node[51].appl 	generatedBSMs 	22
scalar MyScenario.node[51].appl 	receivedBSMs 	292
scalar MyScenario.node[51].appl 	generatedWSAs 	0
scalar MyScenario.node[51].appl 	receivedWSAs 	0
scalar MyScenario.node[51].nic.phy80211p 	busyTime 	0.0013930275229358
scalar MyScenario.node[51].nic.mac1609_4 	ReceivedUnicastPackets 	0
scalar MyScenario.node[51].nic.mac1609_4 	ReceivedBroadcasts 	292
scalar MyScenario.node[51].nic.mac1609_4 	SentPackets 	22
scalar MyScenario.node[51].nic.mac1609_4 	SNIRLostPackets 	0
scalar MyScenario.node[51].nic.mac1609_4 	RXTXLostPackets 	0
scalar MyScenario.node[51].nic.mac1609_4 	TotalLostPackets 	0
scalar MyScenario.node[51].nic.mac1609_4 	DroppedPacketsInMac 	0
scalar MyScenario.node[51].nic.mac1609_4 	TooLittleTime 	0
scalar MyScenario.node[51].nic.mac1609_4 	TimesIntoBackoff 	22
scalar MyScenario.node[51].nic.mac1609_4 	SlotsBackoff 	29
scalar MyScenario.node[51].nic.mac1609_4 	NumInternalContention 	0
scalar MyScenario.node[51].nic.mac1609_4 	totalBusyTime 	0.032678
scalar MyScenario.node[51].veinsmobility 	startTime 	18010.3
scalar MyScenario.node[51].veinsmobility 	totalTime 	21.7
scalar MyScenario.node[51].veinsmobility 	stopTime 	18032.1
scalar MyScenario.node[51].veinsmobility 	minSpeed 	41.51842253683
scalar MyScenario.node[51].veinsmobility 	maxSpeed 	41.648121409741
scalar MyScenario.node[51].veinsmobility 	totalDistance 	902.34593754295
scalar MyScenario.node[51].veinsmobility 	totalCO2Emission 	210.87522660259
scalar MyScenario.node[41].appl 	generatedWSMs 	0
scalar MyScenario.node[41].appl 	receivedWSMs 	0
scalar MyScenario.node[41].appl 	generatedBSMs 	30
scalar MyScenario.node[41].appl 	receivedBSMs 	408
scalar MyScenario.node[41].appl 	generatedWSAs 	0
scalar MyScenario.node[41].appl 	receivedWSAs 	0
scalar MyScenario.node[41].nic.phy80211p 	busyTime 	0.0014050331125828
scalar MyScenario.node[41].nic.mac1609_4 	ReceivedUnicastPackets 	0
scalar MyScenario.node[41].nic.mac1609_4 	ReceivedBroadcasts 	408
scalar MyScenario.node[41].nic.mac1609_4 	SentPackets 	30
scalar MyScenario.node[41].nic.mac1609_4 	SNIRLostPackets 	0
scalar MyScenario.node[41].nic.mac1609_4 	RXTXLostPackets 	0
scalar MyScenario.node[41].nic.mac1609_4 	TotalLostPackets 	0
scalar MyScenario.node[41].nic.mac1609_4 	DroppedPacketsInMac 	0
scalar MyScenario.node[41].nic.mac1609_4 	TooLittleTime 	0
scalar MyScenario.node[41].nic.mac1609_4 	TimesIntoBackoff 	30
scalar MyScenario.node[41].nic.mac1609_4 	SlotsBackoff 	35
scalar MyScenario.node[41].nic.mac1609_4 	NumInternalContention 	0
scalar MyScenario.node[41].nic.mac1609_4 	totalBusyTime 	0.045582
scalar MyScenario.node[41].veinsmobility 	startTime 	18002.2
scalar MyScenario.node[41].veinsmobility 	totalTime 	30.1
scalar MyScenario.node[41].veinsmobility 	stopTime 	18032.4
scalar MyScenario.node[41].veinsmobility 	minSpeed 	29.885537711187
scalar MyScenario.node[41].veinsmobility 	maxSpeed 	29.999380552295
scalar MyScenario.node[41].veinsmobility 	totalDistance 	900.16186644895
scalar MyScenario.node[41].veinsmobility 	totalCO2Emission 	153.57213407156
scalar MyScenario.node[44].appl 	generatedWSMs 	0
scalar MyScenario.node[44].appl 	receivedWSMs 	0
scalar MyScenario.node[44].appl 	generatedBSMs 	30
scalar MyScenario.node[44].appl 	receivedBSMs 	403
scalar MyScenario.node[44].appl 	generatedWSAs 	0
scalar MyScenario.node[44].appl 	receivedWSAs 	0
scalar MyScenario.node[44].nic.phy80211p 	busyTime 	0.0013878145695364
scalar MyScenario.node[44].nic.mac1609_4 	ReceivedUnicastPackets 	0
scalar MyScenario.node[44].nic.mac1609_4 	ReceivedBroadcasts 	403
scalar MyScenario.node[44].nic.mac1609_4 	SentPackets 	30
scalar MyScenario.node[44].nic.mac1609_4 	SNIRLostPackets 	0
scalar MyScenario.node[44].nic.mac1609_4 	RXTXLostPackets 	0
scalar MyScenario.node[44].nic.mac1609_4 	TotalLostPackets 	0
scalar MyScenario.node[44].nic.mac1609_4 	DroppedPacketsInMac 	0
scalar MyScenario.node[44].nic.mac1609_4 	TooLittleTime 	0
scalar MyScenario.node[44].nic.mac1609_4 	TimesIntoBackoff 	30
scalar MyScenario.node[44].nic.mac1609_4 	SlotsBackoff 	44
scalar MyScenario.node[44].nic.mac1609_4 	NumInternalContention 	0
scalar MyScenario.node[44].nic.mac1609_4 	totalBusyTime 	0.045062
scalar MyScenario.node[44].veinsmobility 	startTime 	18003.5
scalar MyScenario.node[44].veinsmobility 	totalTime 	30.1
scalar MyScenario.node[44].veinsmobility 	stopTime 	18033.7
scalar MyScenario.node[44].veinsmobility 	minSpeed 	29.838744419652
scalar MyScenario.node[44].veinsmobility 	maxSpeed 	30.045763897746
scalar MyScenario.node[44].veinsmobility 	totalDistance 	900.15567060401
scalar MyScenario.node[44].veinsmobility 	totalCO2Emission 	162.30283545122
scalar MyScenario.node[45].appl 	generatedWSMs 	0
scalar MyScenario.node[45].appl 	receivedWSMs 	0
scalar MyScenario.node[45].appl 	generatedBSMs 	30
scalar MyScenario.node[45].appl 	receivedBSMs 	393
scalar MyScenario.node[45].appl 	generatedWSAs 	0
scalar MyScenario.node[45].appl 	receivedWSAs 	0
scalar MyScenario.node[45].nic.phy80211p 	busyTime 	0.0013533774834437
scalar MyScenario.node[45].nic.mac1609_4 	ReceivedUnicastPackets 	0
scalar MyScenario.node[45].nic.mac1609_4 	ReceivedBroadcasts 	393
scalar MyScenario.node[45].nic.mac1609_4 	SentPackets 	30
scalar MyScenario.node[45].nic.mac1609_4 	SNIRLostPackets 	0
scalar MyScenario.node[45].nic.mac1609_4 	RXTXLostPackets 	0
scalar MyScenario.node[45].nic.mac1609_4 	TotalLostPackets 	0
scalar MyScenario.node[45].nic.mac1609_4 	DroppedPacketsInMac 	0
scalar MyScenario.node[45].nic.mac1609_4 	TooLittleTime 	0
scalar MyScenario.node[45].nic.mac1609_4 	TimesIntoBackoff 	30
scalar MyScenario.node[45].nic.mac1609_4 	SlotsBackoff 	44
scalar MyScenario.node[45].nic.mac1609_4 	NumInternalContention 	0
scalar MyScenario.node[45].nic.mac1609_4 	totalBusyTime 	0.044022
scalar MyScenario.node[45].veinsmobility 	startTime 	18004.8
scalar MyScenario.node[45].veinsmobility 	totalTime 	30.1
scalar MyScenario.node[45].veinsmobility 	stopTime 	18035
scalar MyScenario.node[45].veinsmobility 	minSpeed 	29.824460694229
scalar MyScenario.node[45].veinsmobility 	maxSpeed 	30.306558554728
scalar MyScenario.node[45].veinsmobility 	totalDistance 	902.23580103173
scalar MyScenario.node[45].veinsmobility 	totalCO2Emission 	171.12020223493
scalar MyScenario.node[47].appl 	generatedWSMs 	0
scalar MyScenario.node[47].appl 	receivedWSMs 	0
scalar MyScenario.node[47].appl 	generatedBSMs 	31
scalar MyScenario.node[47].appl 	receivedBSMs 	385
scalar MyScenario.node[47].appl 	generatedWSAs 	0
scalar MyScenario.node[47].appl 	receivedWSAs 	0
scalar MyScenario.node[47].nic.phy80211p 	busyTime 	0.0013302325581394
scalar MyScenario.node[47].nic.mac1609_4 	ReceivedUnicastPackets 	0
scalar MyScenario.node[47].nic.mac1609_4 	ReceivedBroadcasts 	385
scalar MyScenario.node[47].nic.mac1609_4 	SentPackets 	31
scalar MyScenario.node[47].nic.mac1609_4 	SNIRLostPackets 	0
scalar MyScenario.node[47].nic.mac1609_4 	RXTXLostPackets 	0
scalar MyScenario.node[47].nic.mac1609_4 	TotalLostPackets 	0
scalar MyScenario.node[47].nic.mac1609_4 	DroppedPacketsInMac 	0
scalar MyScenario.node[47].nic.mac1609_4 	TooLittleTime 	0
scalar MyScenario.node[47].nic.mac1609_4 	TimesIntoBackoff 	31
scalar MyScenario.node[47].nic.mac1609_4 	SlotsBackoff 	47
scalar MyScenario.node[47].nic.mac1609_4 	NumInternalContention 	0
scalar MyScenario.node[47].nic.mac1609_4 	totalBusyTime 	0.043295
scalar MyScenario.node[47].veinsmobility 	startTime 	18006.1
scalar MyScenario.node[47].veinsmobility 	totalTime 	30
scalar MyScenario.node[47].veinsmobility 	stopTime 	18036.2
scalar MyScenario.node[47].veinsmobility 	minSpeed 	29.783495030902
scalar MyScenario.node[47].veinsmobility 	maxSpeed 	30.30797160789
scalar MyScenario.node[47].veinsmobility 	totalDistance 	899.53942075952
scalar MyScenario.node[47].veinsmobility 	totalCO2Emission 	178.36285321102
scalar MyScenario.node[50].appl 	generatedWSMs 	0
scalar MyScenario.node[50].appl 	receivedWSMs 	0
scalar MyScenario.node[50].appl 	generatedBSMs 	30
scalar MyScenario.node[50].appl 	receivedBSMs 	381
scalar MyScenario.node[50].appl 	generatedWSAs 	0
scalar MyScenario.node[50].appl 	receivedWSAs 	0
scalar MyScenario.node[50].nic.phy80211p 	busyTime 	0.0013386486486486
scalar MyScenario.node[50].nic.mac1609_4 	ReceivedUnicastPackets 	0
scalar MyScenario.node[50].nic.mac1609_4 	ReceivedBroadcasts 	381
scalar MyScenario.node[50].nic.mac1609_4 	SentPackets 	30
scalar MyScenario.node[50].nic.mac1609_4 	SNIRLostPackets 	0
scalar MyScenario.node[50].nic.mac1609_4 	RXTXLostPackets 	0
scalar MyScenario.node[50].nic.mac1609_4 	TotalLostPackets 	0
scalar MyScenario.node[50].nic.mac1609_4 	DroppedPacketsInMac 	0
scalar MyScenario.node[50].nic.mac1609_4 	TooLittleTime 	0
scalar MyScenario.node[50].nic.mac1609_4 	TimesIntoBackoff 	30
scalar MyScenario.node[50].nic.mac1609_4 	SlotsBackoff 	56
scalar MyScenario.node[50].nic.mac1609_4 	NumInternalContention 	0
scalar MyScenario.node[50].nic.mac1609_4 	totalBusyTime 	0.042774
scalar MyScenario.node[50].veinsmobility 	startTime 	18008
scalar MyScenario.node[50].veinsmobility 	totalTime 	29.5
scalar MyScenario.node[50].veinsmobility 	stopTime 	18037.6
scalar MyScenario.node[50].veinsmobility 	minSpeed 	30.427306550808
scalar MyScenario.node[50].veinsmobility 	maxSpeed 	30.56688294999
scalar MyScenario.node[50].veinsmobility 	totalDistance 	898.59596755205
scalar MyScenario.node[50].veinsmobility 	totalCO2Emission 	157.90292111386
scalar MyScenario.node[52].appl 	generatedWSMs 	0
scalar MyScenario.node[52].appl 	receivedWSMs 	0
scalar MyScenario.node[52].appl 	generatedBSMs 	28
scalar MyScenario.node[52].appl 	receivedBSMs 	334
scalar MyScenario.node[52].appl 	generatedWSAs 	0
scalar MyScenario.node[52].appl 	receivedWSAs 	0
scalar MyScenario.node[52].nic.phy80211p 	busyTime 	0.0012317730496454
scalar MyScenario.node[52].nic.mac1609_4 	ReceivedUnicastPackets 	0
scalar MyScenario.node[52].nic.mac1609_4 	ReceivedBroadcasts 	334
scalar MyScenario.node[52].nic.mac1609_4 	SentPackets 	28
scalar MyScenario.node[52].nic.mac1609_4 	SNIRLostPackets 	0
scalar MyScenario.node[52].nic.mac1609_4 	RXTXLostPackets 	0
scalar MyScenario.node[52].nic.mac1609_4 	TotalLostPackets 	0
scalar MyScenario.node[52].nic.mac1609_4 	DroppedPacketsInMac 	0
scalar MyScenario.node[52].nic.mac1609_4 	TooLittleTime 	0
scalar MyScenario.node[52].nic.mac1609_4 	TimesIntoBackoff 	28
scalar MyScenario.node[52].nic.mac1609_4 	SlotsBackoff 	34
scalar MyScenario.node[52].nic.mac1609_4 	NumInternalContention 	0
scalar MyScenario.node[52].nic.mac1609_4 	totalBusyTime 	0.037676
scalar MyScenario.node[52].veinsmobility 	startTime 	18010.7
scalar MyScenario.node[52].veinsmobility 	totalTime 	28.1
scalar MyScenario.node[52].veinsmobility 	stopTime 	18038.9
scalar MyScenario.node[52].veinsmobility 	minSpeed 	30.645965398143
scalar MyScenario.node[52].veinsmobility 	maxSpeed 	34.571134159127
scalar MyScenario.node[52].veinsmobility 	totalDistance 	904.7419792607
scalar MyScenario.node[52].veinsmobility 	totalCO2Emission 	134.51381879605
scalar MyScenario.node[55].appl 	generatedWSMs 	0
scalar MyScenario.node[55].appl 	receivedWSMs 	0
scalar MyScenario.node[55].appl 	generatedBSMs 	30
scalar MyScenario.node[55].appl 	receivedBSMs 	266
scalar MyScenario.node[55].appl 	generatedWSAs 	0
scalar MyScenario.node[55].appl 	receivedWSAs 	0
scalar MyScenario.node[55].nic.phy80211p 	busyTime 	0.00093776271186447
scalar MyScenario.node[55].nic.mac1609_4 	ReceivedUnicastPackets 	0
scalar MyScenario.node[55].nic.mac1609_4 	ReceivedBroadcasts 	266
scalar MyScenario.node[55].nic.mac1609_4 	SentPackets 	30
scalar MyScenario.node[55].nic.mac1609_4 	SNIRLostPackets 	0
scalar MyScenario.node[55].nic.mac1609_4 	RXTXLostPackets 	0
scalar MyScenario.node[55].nic.mac1609_4 	TotalLostPackets 	0
scalar MyScenario.node[55].nic.mac1609_4 	DroppedPacketsInMac 	0
scalar MyScenario.node[55].nic.mac1609_4 	TooLittleTime 	0
scalar MyScenario.node[55].nic.mac1609_4 	TimesIntoBackoff 	30
scalar MyScenario.node[55].nic.mac1609_4 	SlotsBackoff 	38
scalar MyScenario.node[55].nic.mac1609_4 	NumInternalContention 	0
scalar MyScenario.node[55].nic.mac1609_4 	totalBusyTime 	0.030814
scalar MyScenario.node[55].veinsmobility 	startTime 	18012.9
scalar MyScenario.node[55].veinsmobility 	totalTime 	29.4
scalar MyScenario.node[55].veinsmobility 	stopTime 	18042.4
scalar MyScenario.node[55].veinsmobility 	minSpeed 	30.47306371332
scalar MyScenario.node[55].veinsmobility 	maxSpeed 	30.602373914356
scalar MyScenario.node[55].veinsmobility 	totalDistance 	898.83961549146
scalar MyScenario.node[55].veinsmobility 	totalCO2Emission 	156.65742249209
scalar MyScenario.node[60].appl 	generatedWSMs 	0
scalar MyScenario.node[60].appl 	receivedWSMs 	0
scalar MyScenario.node[60].appl 	generatedBSMs 	23
scalar MyScenario.node[60].appl 	receivedBSMs 	218
scalar MyScenario.node[60].appl 	generatedWSAs 	0
scalar MyScenario.node[60].appl 	receivedWSAs 	0
scalar MyScenario.node[60].nic.phy80211p 	busyTime 	0.0010121428571429
scalar MyScenario.node[60].nic.mac1609_4 	ReceivedUnicastPackets 	0
scalar MyScenario.node[60].nic.mac1609_4 	ReceivedBroadcasts 	218
scalar MyScenario.node[60].nic.mac1609_4 	SentPackets 	23
scalar MyScenario.node[60].nic.mac1609_4 	SNIRLostPackets 	0
scalar MyScenario.node[60].nic.mac1609_4 	RXTXLostPackets 	0
scalar MyScenario.node[60].nic.mac1609_4 	TotalLostPackets 	0
scalar MyScenario.node[60].nic.mac1609_4 	DroppedPacketsInMac 	0
scalar MyScenario.node[60].nic.mac1609_4 	TooLittleTime 	0
scalar MyScenario.node[60].nic.mac1609_4 	TimesIntoBackoff 	23
scalar MyScenario.node[60].nic.mac1609_4 	SlotsBackoff 	33
scalar MyScenario.node[60].nic.mac1609_4 	NumInternalContention 	0
scalar MyScenario.node[60].nic.mac1609_4 	totalBusyTime 	0.025087
scalar MyScenario.node[60].veinsmobility 	startTime 	18020.3
scalar MyScenario.node[60].veinsmobility 	totalTime 	22.3
scalar MyScenario.node[60].veinsmobility 	stopTime 	18042.7
scalar MyScenario.node[60].veinsmobility 	minSpeed 	40.035569484332
scalar MyScenario.node[60].veinsmobility 	maxSpeed 	40.305872691925
scalar MyScenario.node[60].veinsmobility 	totalDistance 	897.27232090925
scalar MyScenario.node[60].veinsmobility 	totalCO2Emission 	198.94357312794
scalar MyScenario.node[63].appl 	generatedWSMs 	0
scalar MyScenario.node[63].appl 	receivedWSMs 	0
scalar MyScenario.node[63].appl 	generatedBSMs 	23
scalar MyScenario.node[63].appl 	receivedBSMs 	178
scalar MyScenario.node[63].appl 	generatedWSAs 	0
scalar MyScenario.node[63].appl 	receivedWSAs 	0
scalar MyScenario.node[63].nic.phy80211p 	busyTime 	0.00077781512605042
scalar MyScenario.node[63].nic.mac1609_4 	ReceivedUnicastPackets 	0
scalar MyScenario.node[63].nic.mac1609_4 	ReceivedBroadcasts 	178
scalar MyScenario.node[63].nic.mac1609_4 	SentPackets 	23
scalar MyScenario.node[63].nic.mac1609_4 	SNIRLostPackets 	0
scalar MyScenario.node[63].nic.mac1609_4 	RXTXLostPackets 	0
scalar MyScenario.node[63].nic.mac1609_4 	TotalLostPackets 	0
scalar MyScenario.node[63].nic.mac1609_4 	DroppedPacketsInMac 	0
scalar MyScenario.node[63].nic.mac1609_4 	TooLittleTime 	0
scalar MyScenario.node[63].nic.mac1609_4 	TimesIntoBackoff 	23
scalar MyScenario.node[63].nic.mac1609_4 	SlotsBackoff 	30
scalar MyScenario.node[63].nic.mac1609_4 	NumInternalContention 	0
scalar MyScenario.node[63].nic.mac1609_4 	totalBusyTime 	0.020927
scalar MyScenario.node[63].veinsmobility 	startTime 	18025.2
scalar MyScenario.node[63].veinsmobility 	totalTime 	23.7
scalar MyScenario.node[63].veinsmobility 	stopTime 	18049
scalar MyScenario.node[63].veinsmobility 	minSpeed 	37.904671385285
scalar MyScenario.node[63].veinsmobility 	maxSpeed 	38.038714478762
scalar MyScenario.node[63].veinsmobility 	totalDistance 	900.86621820734
scalar MyScenario.node[63].veinsmobility 	totalCO2Emission 	189.40802720799
scalar MyScenario.node[59].appl 	generatedWSMs 	0
scalar MyScenario.node[59].appl 	receivedWSMs 	0
scalar MyScenario.node[59].appl 	generatedBSMs 	29
scalar MyScenario.node[59].appl 	receivedBSMs 	228
scalar MyScenario.node[59].appl 	generatedWSAs 	0
scalar MyScenario.node[59].appl 	receivedWSAs 	0
scalar MyScenario.node[59].nic.phy80211p 	busyTime 	0.00081561643835616
scalar MyScenario.node[59].nic.mac1609_4 	ReceivedUnicastPackets 	0
scalar MyScenario.node[59].nic.mac1609_4 	ReceivedBroadcasts 	228
scalar MyScenario.node[59].nic.mac1609_4 	SentPackets 	29
scalar MyScenario.node[59].nic.mac1609_4 	SNIRLostPackets 	1
scalar MyScenario.node[59].nic.mac1609_4 	RXTXLostPackets 	0
scalar MyScenario.node[59].nic.mac1609_4 	TotalLostPackets 	1
scalar MyScenario.node[59].nic.mac1609_4 	DroppedPacketsInMac 	0
scalar MyScenario.node[59].nic.mac1609_4 	TooLittleTime 	0
scalar MyScenario.node[59].nic.mac1609_4 	TimesIntoBackoff 	29
scalar MyScenario.node[59].nic.mac1609_4 	SlotsBackoff 	34
scalar MyScenario.node[59].nic.mac1609_4 	NumInternalContention 	0
scalar MyScenario.node[59].nic.mac1609_4 	totalBusyTime 	0.026861
scalar MyScenario.node[59].veinsmobility 	startTime 	18020
scalar MyScenario.node[59].veinsmobility 	totalTime 	29.1
scalar MyScenario.node[59].veinsmobility 	stopTime 	18049.2
scalar MyScenario.node[59].veinsmobility 	minSpeed 	30.918307363823
scalar MyScenario.node[59].veinsmobility 	maxSpeed 	31.047248961899
scalar MyScenario.node[59].veinsmobility 	totalDistance 	900.61118809511
scalar MyScenario.node[59].veinsmobility 	totalCO2Emission 	157.81518571247
scalar MyScenario.node[61].appl 	generatedWSMs 	0
scalar MyScenario.node[61].appl 	receivedWSMs 	0
scalar MyScenario.node[61].appl 	generatedBSMs 	29
scalar MyScenario.node[61].appl 	receivedBSMs 	210
scalar MyScenario.node[61].appl 	generatedWSAs 	0
scalar MyScenario.node[61].appl 	receivedWSAs 	0
scalar MyScenario.node[61].nic.phy80211p 	busyTime 	0.00074794520547945
scalar MyScenario.node[61].nic.mac1609_4 	ReceivedUnicastPackets 	0
scalar MyScenario.node[61].nic.mac1609_4 	ReceivedBroadcasts 	210
scalar MyScenario.node[61].nic.mac1609_4 	SentPackets 	29
scalar MyScenario.node[61].nic.mac1609_4 	SNIRLostPackets 	0
scalar MyScenario.node[61].nic.mac1609_4 	RXTXLostPackets 	0
scalar MyScenario.node[61].nic.mac1609_4 	TotalLostPackets 	0
scalar MyScenario.node[61].nic.mac1609_4 	DroppedPacketsInMac 	0
scalar MyScenario.node[61].nic.mac1609_4 	TooLittleTime 	0
scalar MyScenario.node[61].nic.mac1609_4 	TimesIntoBackoff 	29
scalar MyScenario.node[61].nic.mac1609_4 	SlotsBackoff 	44
scalar MyScenario.node[61].nic.mac1609_4 	NumInternalContention 	0
scalar MyScenario.node[61].nic.mac1609_4 	totalBusyTime 	0.024885
scalar MyScenario.node[61].veinsmobility 	startTime 	18021.3
scalar MyScenario.node[61].veinsmobility 	totalTime 	29.1
scalar MyScenario.node[61].veinsmobility 	stopTime 	18050.5
scalar MyScenario.node[61].veinsmobility 	minSpeed 	30.866256380053
scalar MyScenario.node[61].veinsmobility 	maxSpeed 	31.104588543114
scalar MyScenario.node[61].veinsmobility 	totalDistance 	900.57180201948
scalar MyScenario.node[61].veinsmobility 	totalCO2Emission 	170.79913531295
scalar MyScenario.node[66].appl 	generatedWSMs 	0
scalar MyScenario.node[66].appl 	receivedWSMs 	0
scalar MyScenario.node[66].appl 	generatedBSMs 	25
scalar MyScenario.node[66].appl 	receivedBSMs 	170
scalar MyScenario.node[66].appl 	generatedWSAs 	0
scalar MyScenario.node[66].appl 	receivedWSAs 	0
scalar MyScenario.node[66].nic.phy80211p 	busyTime 	0.00071709677419355
scalar MyScenario.node[66].nic.mac1609_4 	ReceivedUnicastPackets 	0
scalar MyScenario.node[66].nic.mac1609_4 	ReceivedBroadcasts 	170
scalar MyScenario.node[66].nic.mac1609_4 	SentPackets 	25
scalar MyScenario.node[66].nic.mac1609_4 	SNIRLostPackets 	1
scalar MyScenario.node[66].nic.mac1609_4 	RXTXLostPackets 	0
scalar MyScenario.node[66].nic.mac1609_4 	TotalLostPackets 	1
scalar MyScenario.node[66].nic.mac1609_4 	DroppedPacketsInMac 	0
scalar MyScenario.node[66].nic.mac1609_4 	TooLittleTime 	0
scalar MyScenario.node[66].nic.mac1609_4 	TimesIntoBackoff 	25
scalar MyScenario.node[66].nic.mac1609_4 	SlotsBackoff 	47
scalar MyScenario.node[66].nic.mac1609_4 	NumInternalContention 	0
scalar MyScenario.node[66].nic.mac1609_4 	totalBusyTime 	0.020409
scalar MyScenario.node[66].veinsmobility 	startTime 	18029.5
scalar MyScenario.node[66].veinsmobility 	totalTime 	24.7
scalar MyScenario.node[66].veinsmobility 	stopTime 	18054.3
scalar MyScenario.node[66].veinsmobility 	minSpeed 	36.524410524259
scalar MyScenario.node[66].veinsmobility 	maxSpeed 	36.652376806934
scalar MyScenario.node[66].veinsmobility 	totalDistance 	902.7321068906
scalar MyScenario.node[66].veinsmobility 	totalCO2Emission 	181.89044294361
scalar MyScenario.node[68].appl 	generatedWSMs 	0
scalar MyScenario.node[68].appl 	receivedWSMs 	0
scalar MyScenario.node[68].appl 	generatedBSMs 	22
scalar MyScenario.node[68].appl 	receivedBSMs 	130
scalar MyScenario.node[68].appl 	generatedWSAs 	0
scalar MyScenario.node[68].appl 	receivedWSAs 	0
scalar MyScenario.node[68].nic.phy80211p 	busyTime 	0.00060900900900901
scalar MyScenario.node[68].nic.mac1609_4 	ReceivedUnicastPackets 	0
scalar MyScenario.node[68].nic.mac1609_4 	ReceivedBroadcasts 	130
scalar MyScenario.node[68].nic.mac1609_4 	SentPackets 	22
scalar MyScenario.node[68].nic.mac1609_4 	SNIRLostPackets 	0
scalar MyScenario.node[68].nic.mac1609_4 	RXTXLostPackets 	0
scalar MyScenario.node[68].nic.mac1609_4 	TotalLostPackets 	0
scalar MyScenario.node[68].nic.mac1609_4 	DroppedPacketsInMac 	0
scalar MyScenario.node[68].nic.mac1609_4 	TooLittleTime 	0
scalar MyScenario.node[68].nic.mac1609_4 	TimesIntoBackoff 	22
scalar MyScenario.node[68].nic.mac1609_4 	SlotsBackoff 	27
scalar MyScenario.node[68].nic.mac1609_4 	NumInternalContention 	0
scalar MyScenario.node[68].nic.mac1609_4 	totalBusyTime 	0.01583
scalar MyScenario.node[68].veinsmobility 	startTime 	18037.1
scalar MyScenario.node[68].veinsmobility 	totalTime 	22.1
scalar MyScenario.node[68].veinsmobility 	stopTime 	18059.3
scalar MyScenario.node[68].veinsmobility 	minSpeed 	40.616593894083
scalar MyScenario.node[68].veinsmobility 	maxSpeed 	40.744248453786
scalar MyScenario.node[68].veinsmobility 	totalDistance 	900.05850002374
scalar MyScenario.node[68].veinsmobility 	totalCO2Emission 	204.03730030183
scalar MyScenario.node[20].appl 	generatedWSMs 	0
scalar MyScenario.node[20].appl 	receivedWSMs 	0
scalar MyScenario.node[20].appl 	generatedBSMs 	61
scalar MyScenario.node[20].appl 	receivedBSMs 	69
scalar MyScenario.node[20].appl 	generatedWSAs 	0
scalar MyScenario.node[20].appl 	receivedWSAs 	0
scalar MyScenario.node[20].nic.phy80211p 	busyTime 	0.00011687296416938
scalar MyScenario.node[20].nic.mac1609_4 	ReceivedUnicastPackets 	0
scalar MyScenario.node[20].nic.mac1609_4 	ReceivedBroadcasts 	69
scalar MyScenario.node[20].nic.mac1609_4 	SentPackets 	61
scalar MyScenario.node[20].nic.mac1609_4 	SNIRLostPackets 	0
scalar MyScenario.node[20].nic.mac1609_4 	RXTXLostPackets 	0
scalar MyScenario.node[20].nic.mac1609_4 	TotalLostPackets 	0
scalar MyScenario.node[20].nic.mac1609_4 	DroppedPacketsInMac 	0
scalar MyScenario.node[20].nic.mac1609_4 	TooLittleTime 	0
scalar MyScenario.node[20].nic.mac1609_4 	TimesIntoBackoff 	61
scalar MyScenario.node[20].nic.mac1609_4 	SlotsBackoff 	89
scalar MyScenario.node[20].nic.mac1609_4 	NumInternalContention 	0
scalar MyScenario.node[20].nic.mac1609_4 	totalBusyTime 	0.013581
scalar MyScenario.node[20].veinsmobility 	startTime 	18000
scalar MyScenario.node[20].veinsmobility 	totalTime 	61.3
scalar MyScenario.node[20].veinsmobility 	stopTime 	18061.4
scalar MyScenario.node[20].veinsmobility 	minSpeed 	13.10754904722
scalar MyScenario.node[20].veinsmobility 	maxSpeed 	15.885968141275
scalar MyScenario.node[20].veinsmobility 	totalDistance 	920.16682171467
scalar MyScenario.node[20].veinsmobility 	totalCO2Emission 	158.19574930671
scalar MyScenario.node[82].appl 	generatedWSMs 	0
scalar MyScenario.node[82].appl 	receivedWSMs 	0
scalar MyScenario.node[82].appl 	generatedBSMs 	2
scalar MyScenario.node[82].appl 	receivedBSMs 	22
scalar MyScenario.node[82].appl 	generatedWSAs 	0
scalar MyScenario.node[82].appl 	receivedWSAs 	0
scalar MyScenario.node[82].nic.phy80211p 	busyTime 	0.00099478260869565
scalar MyScenario.node[82].nic.mac1609_4 	ReceivedUnicastPackets 	0
scalar MyScenario.node[82].nic.mac1609_4 	ReceivedBroadcasts 	22
scalar MyScenario.node[82].nic.mac1609_4 	SentPackets 	2
scalar MyScenario.node[82].nic.mac1609_4 	SNIRLostPackets 	0
scalar MyScenario.node[82].nic.mac1609_4 	RXTXLostPackets 	0
scalar MyScenario.node[82].nic.mac1609_4 	TotalLostPackets 	0
scalar MyScenario.node[82].nic.mac1609_4 	DroppedPacketsInMac 	0
scalar MyScenario.node[82].nic.mac1609_4 	TooLittleTime 	0
scalar MyScenario.node[82].nic.mac1609_4 	TimesIntoBackoff 	2
scalar MyScenario.node[82].nic.mac1609_4 	SlotsBackoff 	6
scalar MyScenario.node[82].nic.mac1609_4 	NumInternalContention 	0
scalar MyScenario.node[82].nic.mac1609_4 	totalBusyTime 	0.002498
scalar MyScenario.node[82].veinsmobility 	startTime 	18059.1
scalar MyScenario.node[82].veinsmobility 	totalTime 	2.2
scalar MyScenario.node[82].veinsmobility 	stopTime 	18061.4
scalar MyScenario.node[82].veinsmobility 	minSpeed 	0.25887200850667
scalar MyScenario.node[82].veinsmobility 	maxSpeed 	4.5628361547734
scalar MyScenario.node[82].veinsmobility 	totalDistance 	5.4712455151379
scalar MyScenario.node[82].veinsmobility 	totalCO2Emission 	5.2088999320597
scalar MyScenario.node[24].appl 	generatedWSMs 	0
scalar MyScenario.node[24].appl 	receivedWSMs 	0
scalar MyScenario.node[24].appl 	generatedBSMs 	63
scalar MyScenario.node[24].appl 	receivedBSMs 	460
scalar MyScenario.node[24].appl 	generatedWSAs 	0
scalar MyScenario.node[24].appl 	receivedWSAs 	0
scalar MyScenario.node[24].nic.phy80211p 	busyTime 	0.00075936507936508
scalar MyScenario.node[24].nic.mac1609_4 	ReceivedUnicastPackets 	0
scalar MyScenario.node[24].nic.mac1609_4 	ReceivedBroadcasts 	460
scalar MyScenario.node[24].nic.mac1609_4 	SentPackets 	63
scalar MyScenario.node[24].nic.mac1609_4 	SNIRLostPackets 	0
scalar MyScenario.node[24].nic.mac1609_4 	RXTXLostPackets 	0
scalar MyScenario.node[24].nic.mac1609_4 	TotalLostPackets 	0
scalar MyScenario.node[24].nic.mac1609_4 	DroppedPacketsInMac 	0
scalar MyScenario.node[24].nic.mac1609_4 	TooLittleTime 	0
scalar MyScenario.node[24].nic.mac1609_4 	TimesIntoBackoff 	63
scalar MyScenario.node[24].nic.mac1609_4 	SlotsBackoff 	116
scalar MyScenario.node[24].nic.mac1609_4 	NumInternalContention 	0
scalar MyScenario.node[24].nic.mac1609_4 	totalBusyTime 	0.054455
scalar MyScenario.node[24].veinsmobility 	startTime 	18000
scalar MyScenario.node[24].veinsmobility 	totalTime 	62.9
scalar MyScenario.node[24].veinsmobility 	stopTime 	18063
scalar MyScenario.node[24].veinsmobility 	minSpeed 	4.5374073582607e-14
scalar MyScenario.node[24].veinsmobility 	maxSpeed 	16.058120693473
scalar MyScenario.node[24].veinsmobility 	totalDistance 	321.48374580442
scalar MyScenario.node[24].veinsmobility 	totalCO2Emission 	148.86341865316
scalar MyScenario.node[16].appl 	generatedWSMs 	0
scalar MyScenario.node[16].appl 	receivedWSMs 	0
scalar MyScenario.node[16].appl 	generatedBSMs 	66
scalar MyScenario.node[16].appl 	receivedBSMs 	492
scalar MyScenario.node[16].appl 	generatedWSAs 	0
scalar MyScenario.node[16].appl 	receivedWSAs 	0
scalar MyScenario.node[16].nic.phy80211p 	busyTime 	0.00078358346094946
scalar MyScenario.node[16].nic.mac1609_4 	ReceivedUnicastPackets 	0
scalar MyScenario.node[16].nic.mac1609_4 	ReceivedBroadcasts 	492
scalar MyScenario.node[16].nic.mac1609_4 	SentPackets 	66
scalar MyScenario.node[16].nic.mac1609_4 	SNIRLostPackets 	0
scalar MyScenario.node[16].nic.mac1609_4 	RXTXLostPackets 	0
scalar MyScenario.node[16].nic.mac1609_4 	TotalLostPackets 	0
scalar MyScenario.node[16].nic.mac1609_4 	DroppedPacketsInMac 	0
scalar MyScenario.node[16].nic.mac1609_4 	TooLittleTime 	0
scalar MyScenario.node[16].nic.mac1609_4 	TimesIntoBackoff 	66
scalar MyScenario.node[16].nic.mac1609_4 	SlotsBackoff 	102
scalar MyScenario.node[16].nic.mac1609_4 	NumInternalContention 	0
scalar MyScenario.node[16].nic.mac1609_4 	totalBusyTime 	0.058098
scalar MyScenario.node[16].veinsmobility 	startTime 	18000
scalar MyScenario.node[16].veinsmobility 	totalTime 	65.2
scalar MyScenario.node[16].veinsmobility 	stopTime 	18065.3
scalar MyScenario.node[16].veinsmobility 	minSpeed 	0
scalar MyScenario.node[16].veinsmobility 	maxSpeed 	14.490481864421
scalar MyScenario.node[16].veinsmobility 	totalDistance 	331.2045340441
scalar MyScenario.node[16].veinsmobility 	totalCO2Emission 	143.14187009851
scalar MyScenario.node[70].appl 	generatedWSMs 	0
scalar MyScenario.node[70].appl 	receivedWSMs 	0
scalar MyScenario.node[70].appl 	generatedBSMs 	24
scalar MyScenario.node[70].appl 	receivedBSMs 	158
scalar MyScenario.node[70].appl 	generatedWSAs 	0
scalar MyScenario.node[70].appl 	receivedWSAs 	0
scalar MyScenario.node[70].nic.phy80211p 	busyTime 	0.00067344262295082
scalar MyScenario.node[70].nic.mac1609_4 	ReceivedUnicastPackets 	0
scalar MyScenario.node[70].nic.mac1609_4 	ReceivedBroadcasts 	158
scalar MyScenario.node[70].nic.mac1609_4 	SentPackets 	24
scalar MyScenario.node[70].nic.mac1609_4 	SNIRLostPackets 	0
scalar MyScenario.node[70].nic.mac1609_4 	RXTXLostPackets 	0
scalar MyScenario.node[70].nic.mac1609_4 	TotalLostPackets 	0
scalar MyScenario.node[70].nic.mac1609_4 	DroppedPacketsInMac 	0
scalar MyScenario.node[70].nic.mac1609_4 	TooLittleTime 	0
scalar MyScenario.node[70].nic.mac1609_4 	TimesIntoBackoff 	24
scalar MyScenario.node[70].nic.mac1609_4 	SlotsBackoff 	32
scalar MyScenario.node[70].nic.mac1609_4 	NumInternalContention 	0
scalar MyScenario.node[70].nic.mac1609_4 	totalBusyTime 	0.018952
scalar MyScenario.node[70].veinsmobility 	startTime 	18041.3
scalar MyScenario.node[70].veinsmobility 	totalTime 	24.3
scalar MyScenario.node[70].veinsmobility 	stopTime 	18065.7
scalar MyScenario.node[70].veinsmobility 	minSpeed 	36.88782304167
scalar MyScenario.node[70].veinsmobility 	maxSpeed 	37.021233390736
scalar MyScenario.node[70].veinsmobility 	totalDistance 	898.01983725995
scalar MyScenario.node[70].veinsmobility 	totalCO2Emission 	184.27963862124
scalar MyScenario.node[71].appl 	generatedWSMs 	0
scalar MyScenario.node[71].appl 	receivedWSMs 	0
scalar MyScenario.node[71].appl 	generatedBSMs 	29
scalar MyScenario.node[71].appl 	receivedBSMs 	198
scalar MyScenario.node[71].appl 	generatedWSAs 	0
scalar MyScenario.node[71].appl 	receivedWSAs 	0
scalar MyScenario.node[71].nic.phy80211p 	busyTime 	0.00070520547945205
scalar MyScenario.node[71].nic.mac1609_4 	ReceivedUnicastPackets 	0
scalar MyScenario.node[71].nic.mac1609_4 	ReceivedBroadcasts 	198
scalar MyScenario.node[71].nic.mac1609_4 	SentPackets 	29
scalar MyScenario.node[71].nic.mac1609_4 	SNIRLostPackets 	0
scalar MyScenario.node[71].nic.mac1609_4 	RXTXLostPackets 	0
scalar MyScenario.node[71].nic.mac1609_4 	TotalLostPackets 	0
scalar MyScenario.node[71].nic.mac1609_4 	DroppedPacketsInMac 	0
scalar MyScenario.node[71].nic.mac1609_4 	TooLittleTime 	0
scalar MyScenario.node[71].nic.mac1609_4 	TimesIntoBackoff 	29
scalar MyScenario.node[71].nic.mac1609_4 	SlotsBackoff 	45
scalar MyScenario.node[71].nic.mac1609_4 	NumInternalContention 	0
scalar MyScenario.node[71].nic.mac1609_4 	totalBusyTime 	0.023637
scalar MyScenario.node[71].veinsmobility 	startTime 	18041.7
scalar MyScenario.node[71].veinsmobility 	totalTime 	29.1
scalar MyScenario.node[71].veinsmobility 	stopTime 	18070.9
scalar MyScenario.node[71].veinsmobility 	minSpeed 	31.005117810443
scalar MyScenario.node[71].veinsmobility 	maxSpeed 	31.134089211374
scalar MyScenario.node[71].veinsmobility 	totalDistance 	902.97422962228
scalar MyScenario.node[71].veinsmobility 	totalCO2Emission 	157.76435164242
scalar MyScenario.node[27].appl 	generatedWSMs 	0
scalar MyScenario.node[27].appl 	receivedWSMs 	0
scalar MyScenario.node[27].appl 	generatedBSMs 	72
scalar MyScenario.node[27].appl 	receivedBSMs 	82
scalar MyScenario.node[27].appl 	generatedWSAs 	0
scalar MyScenario.node[27].appl 	receivedWSAs 	0
scalar MyScenario.node[27].nic.phy80211p 	busyTime 	0.00011860917941586
scalar MyScenario.node[27].nic.mac1609_4 	ReceivedUnicastPackets 	0
scalar MyScenario.node[27].nic.mac1609_4 	ReceivedBroadcasts 	82
scalar MyScenario.node[27].nic.mac1609_4 	SentPackets 	72
scalar MyScenario.node[27].nic.mac1609_4 	SNIRLostPackets 	0
scalar MyScenario.node[27].nic.mac1609_4 	RXTXLostPackets 	0
scalar MyScenario.node[27].nic.mac1609_4 	TotalLostPackets 	0
scalar MyScenario.node[27].nic.mac1609_4 	DroppedPacketsInMac 	0
scalar MyScenario.node[27].nic.mac1609_4 	TooLittleTime 	0
scalar MyScenario.node[27].nic.mac1609_4 	TimesIntoBackoff 	72
scalar MyScenario.node[27].nic.mac1609_4 	SlotsBackoff 	121
scalar MyScenario.node[27].nic.mac1609_4 	NumInternalContention 	0
scalar MyScenario.node[27].nic.mac1609_4 	totalBusyTime 	0.016088
scalar MyScenario.node[27].veinsmobility 	startTime 	18000
scalar MyScenario.node[27].veinsmobility 	totalTime 	71.8
scalar MyScenario.node[27].veinsmobility 	stopTime 	18071.9
scalar MyScenario.node[27].veinsmobility 	minSpeed 	4.5420330483825e-14
scalar MyScenario.node[27].veinsmobility 	maxSpeed 	12.639573083138
scalar MyScenario.node[27].veinsmobility 	totalDistance 	588.66074460956
scalar MyScenario.node[27].veinsmobility 	totalCO2Emission 	171.10467912275
scalar MyScenario.node[72].appl 	generatedWSMs 	0
scalar MyScenario.node[72].appl 	receivedWSMs 	0
scalar MyScenario.node[72].appl 	generatedBSMs 	29
scalar MyScenario.node[72].appl 	receivedBSMs 	211
scalar MyScenario.node[72].appl 	generatedWSAs 	0
scalar MyScenario.node[72].appl 	receivedWSAs 	0
scalar MyScenario.node[72].nic.phy80211p 	busyTime 	0.00075668965517241
scalar MyScenario.node[72].nic.mac1609_4 	ReceivedUnicastPackets 	0
scalar MyScenario.node[72].nic.mac1609_4 	ReceivedBroadcasts 	211
scalar MyScenario.node[72].nic.mac1609_4 	SentPackets 	29
scalar MyScenario.node[72].nic.mac1609_4 	SNIRLostPackets 	0
scalar MyScenario.node[72].nic.mac1609_4 	RXTXLostPackets 	0
scalar MyScenario.node[72].nic.mac1609_4 	TotalLostPackets 	0
scalar MyScenario.node[72].nic.mac1609_4 	DroppedPacketsInMac 	0
scalar MyScenario.node[72].nic.mac1609_4 	TooLittleTime 	0
scalar MyScenario.node[72].nic.mac1609_4 	TimesIntoBackoff 	29
scalar MyScenario.node[72].nic.mac1609_4 	SlotsBackoff 	43
scalar MyScenario.node[72].nic.mac1609_4 	NumInternalContention 	0
scalar MyScenario.node[72].nic.mac1609_4 	totalBusyTime 	0.024989
scalar MyScenario.node[72].veinsmobility 	startTime 	18043.1
scalar MyScenario.node[72].veinsmobility 	totalTime 	28.9
scalar MyScenario.node[72].veinsmobility 	stopTime 	18072.1
scalar MyScenario.node[72].veinsmobility 	minSpeed 	30.966901547753
scalar MyScenario.node[72].veinsmobility 	maxSpeed 	31.555569268032
scalar MyScenario.node[72].veinsmobility 	totalDistance 	900.19978708342
scalar MyScenario.node[72].veinsmobility 	totalCO2Emission 	166.88746464516
scalar MyScenario.node[76].appl 	generatedWSMs 	0
scalar MyScenario.node[76].appl 	receivedWSMs 	0
scalar MyScenario.node[76].appl 	generatedBSMs 	23
scalar MyScenario.node[76].appl 	receivedBSMs 	190
scalar MyScenario.node[76].appl 	generatedWSAs 	0
scalar MyScenario.node[76].appl 	receivedWSAs 	0
scalar MyScenario.node[76].nic.phy80211p 	busyTime 	0.00085913043478261
scalar MyScenario.node[76].nic.mac1609_4 	ReceivedUnicastPackets 	0
scalar MyScenario.node[76].nic.mac1609_4 	ReceivedBroadcasts 	190
scalar MyScenario.node[76].nic.mac1609_4 	SentPackets 	23
scalar MyScenario.node[76].nic.mac1609_4 	SNIRLostPackets 	0
scalar MyScenario.node[76].nic.mac1609_4 	RXTXLostPackets 	0
scalar MyScenario.node[76].nic.mac1609_4 	TotalLostPackets 	0
scalar MyScenario.node[76].nic.mac1609_4 	DroppedPacketsInMac 	0
scalar MyScenario.node[76].nic.mac1609_4 	TooLittleTime 	0
scalar MyScenario.node[76].nic.mac1609_4 	TimesIntoBackoff 	23
scalar MyScenario.node[76].nic.mac1609_4 	SlotsBackoff 	28
scalar MyScenario.node[76].nic.mac1609_4 	NumInternalContention 	0
scalar MyScenario.node[76].nic.mac1609_4 	totalBusyTime 	0.022175
scalar MyScenario.node[76].veinsmobility 	startTime 	18051.8
scalar MyScenario.node[76].veinsmobility 	totalTime 	22.9
scalar MyScenario.node[76].veinsmobility 	stopTime 	18074.8
scalar MyScenario.node[76].veinsmobility 	minSpeed 	36.66151531234
scalar MyScenario.node[76].veinsmobility 	maxSpeed 	39.38800695432
scalar MyScenario.node[76].veinsmobility 	totalDistance 	899.52252152615
scalar MyScenario.node[76].veinsmobility 	totalCO2Emission 	219.76183917952
scalar MyScenario.node[74].appl 	generatedWSMs 	0
scalar MyScenario.node[74].appl 	receivedWSMs 	0
scalar MyScenario.node[74].appl 	generatedBSMs 	26
scalar MyScenario.node[74].appl 	receivedBSMs 	201
scalar MyScenario.node[74].appl 	generatedWSAs 	0
scalar MyScenario.node[74].appl 	receivedWSAs 	0
scalar MyScenario.node[74].nic.phy80211p 	busyTime 	0.00081338521400778
scalar MyScenario.node[74].nic.mac1609_4 	ReceivedUnicastPackets 	0
scalar MyScenario.node[74].nic.mac1609_4 	ReceivedBroadcasts 	201
scalar MyScenario.node[74].nic.mac1609_4 	SentPackets 	26
scalar MyScenario.node[74].nic.mac1609_4 	SNIRLostPackets 	0
scalar MyScenario.node[74].nic.mac1609_4 	RXTXLostPackets 	0
scalar MyScenario.node[74].nic.mac1609_4 	TotalLostPackets 	0
scalar MyScenario.node[74].nic.mac1609_4 	DroppedPacketsInMac 	0
scalar MyScenario.node[74].nic.mac1609_4 	TooLittleTime 	0
scalar MyScenario.node[74].nic.mac1609_4 	TimesIntoBackoff 	26
scalar MyScenario.node[74].nic.mac1609_4 	SlotsBackoff 	40
scalar MyScenario.node[74].nic.mac1609_4 	NumInternalContention 	0
scalar MyScenario.node[74].nic.mac1609_4 	totalBusyTime 	0.023634
scalar MyScenario.node[74].veinsmobility 	startTime 	18050.5
scalar MyScenario.node[74].veinsmobility 	totalTime 	25.6
scalar MyScenario.node[74].veinsmobility 	stopTime 	18076.2
scalar MyScenario.node[74].veinsmobility 	minSpeed 	35.171170764376
scalar MyScenario.node[74].veinsmobility 	maxSpeed 	35.32014233842
scalar MyScenario.node[74].veinsmobility 	totalDistance 	902.4092910733
scalar MyScenario.node[74].veinsmobility 	totalCO2Emission 	177.95714777999
scalar MyScenario.node[78].appl 	generatedWSMs 	0
scalar MyScenario.node[78].appl 	receivedWSMs 	0
scalar MyScenario.node[78].appl 	generatedBSMs 	25
scalar MyScenario.node[78].appl 	receivedBSMs 	182
scalar MyScenario.node[78].appl 	generatedWSAs 	0
scalar MyScenario.node[78].appl 	receivedWSAs 	0
scalar MyScenario.node[78].nic.phy80211p 	busyTime 	0.00075111111111111
scalar MyScenario.node[78].nic.mac1609_4 	ReceivedUnicastPackets 	0
scalar MyScenario.node[78].nic.mac1609_4 	ReceivedBroadcasts 	182
scalar MyScenario.node[78].nic.mac1609_4 	SentPackets 	25
scalar MyScenario.node[78].nic.mac1609_4 	SNIRLostPackets 	0
scalar MyScenario.node[78].nic.mac1609_4 	RXTXLostPackets 	0
scalar MyScenario.node[78].nic.mac1609_4 	TotalLostPackets 	0
scalar MyScenario.node[78].nic.mac1609_4 	DroppedPacketsInMac 	0
scalar MyScenario.node[78].nic.mac1609_4 	TooLittleTime 	0
scalar MyScenario.node[78].nic.mac1609_4 	TimesIntoBackoff 	25
scalar MyScenario.node[78].nic.mac1609_4 	SlotsBackoff 	39
scalar MyScenario.node[78].nic.mac1609_4 	NumInternalContention 	0
scalar MyScenario.node[78].nic.mac1609_4 	totalBusyTime 	0.021553
scalar MyScenario.node[78].veinsmobility 	startTime 	18053.1
scalar MyScenario.node[78].veinsmobility 	totalTime 	25.1
scalar MyScenario.node[78].veinsmobility 	stopTime 	18078.3
scalar MyScenario.node[78].veinsmobility 	minSpeed 	28.967002614268
scalar MyScenario.node[78].veinsmobility 	maxSpeed 	36.37420795625
scalar MyScenario.node[78].veinsmobility 	totalDistance 	898.55928268853
scalar MyScenario.node[78].veinsmobility 	totalCO2Emission 	235.38322558148
scalar MyScenario.node[75].appl 	generatedWSMs 	0
scalar MyScenario.node[75].appl 	receivedWSMs 	0
scalar MyScenario.node[75].appl 	generatedBSMs 	28
scalar MyScenario.node[75].appl 	receivedBSMs 	207
scalar MyScenario.node[75].appl 	generatedWSAs 	0
scalar MyScenario.node[75].appl 	receivedWSAs 	0
scalar MyScenario.node[75].nic.phy80211p 	busyTime 	0.00076070671378092
scalar MyScenario.node[75].nic.mac1609_4 	ReceivedUnicastPackets 	0
scalar MyScenario.node[75].nic.mac1609_4 	ReceivedBroadcasts 	207
scalar MyScenario.node[75].nic.mac1609_4 	SentPackets 	28
scalar MyScenario.node[75].nic.mac1609_4 	SNIRLostPackets 	0
scalar MyScenario.node[75].nic.mac1609_4 	RXTXLostPackets 	0
scalar MyScenario.node[75].nic.mac1609_4 	TotalLostPackets 	0
scalar MyScenario.node[75].nic.mac1609_4 	DroppedPacketsInMac 	0
scalar MyScenario.node[75].nic.mac1609_4 	TooLittleTime 	0
scalar MyScenario.node[75].nic.mac1609_4 	TimesIntoBackoff 	28
scalar MyScenario.node[75].nic.mac1609_4 	SlotsBackoff 	45
scalar MyScenario.node[75].nic.mac1609_4 	NumInternalContention 	0
scalar MyScenario.node[75].nic.mac1609_4 	totalBusyTime 	0.024468
scalar MyScenario.node[75].veinsmobility 	startTime 	18050.6
scalar MyScenario.node[75].veinsmobility 	totalTime 	28.2
scalar MyScenario.node[75].veinsmobility 	stopTime 	18078.9
scalar MyScenario.node[75].veinsmobility 	minSpeed 	31.85867939262
scalar MyScenario.node[75].veinsmobility 	maxSpeed 	31.991824143335
scalar MyScenario.node[75].veinsmobility 	totalDistance 	899.31389855535
scalar MyScenario.node[75].veinsmobility 	totalCO2Emission 	162.98771629202
scalar MyScenario.node[79].appl 	generatedWSMs 	0
scalar MyScenario.node[79].appl 	receivedWSMs 	0
scalar MyScenario.node[79].appl 	generatedBSMs 	27
scalar MyScenario.node[79].appl 	receivedBSMs 	213
scalar MyScenario.node[79].appl 	generatedWSAs 	0
scalar MyScenario.node[79].appl 	receivedWSAs 	0
scalar MyScenario.node[79].nic.phy80211p 	busyTime 	0.00080846715328467
scalar MyScenario.node[79].nic.mac1609_4 	ReceivedUnicastPackets 	0
scalar MyScenario.node[79].nic.mac1609_4 	ReceivedBroadcasts 	213
scalar MyScenario.node[79].nic.mac1609_4 	SentPackets 	27
scalar MyScenario.node[79].nic.mac1609_4 	SNIRLostPackets 	0
scalar MyScenario.node[79].nic.mac1609_4 	RXTXLostPackets 	0
scalar MyScenario.node[79].nic.mac1609_4 	TotalLostPackets 	0
scalar MyScenario.node[79].nic.mac1609_4 	DroppedPacketsInMac 	0
scalar MyScenario.node[79].nic.mac1609_4 	TooLittleTime 	0
scalar MyScenario.node[79].nic.mac1609_4 	TimesIntoBackoff 	27
scalar MyScenario.node[79].nic.mac1609_4 	SlotsBackoff 	42
scalar MyScenario.node[79].nic.mac1609_4 	NumInternalContention 	0
scalar MyScenario.node[79].nic.mac1609_4 	totalBusyTime 	0.024987
scalar MyScenario.node[79].veinsmobility 	startTime 	18055.9
scalar MyScenario.node[79].veinsmobility 	totalTime 	27.3
scalar MyScenario.node[79].veinsmobility 	stopTime 	18083.3
scalar MyScenario.node[79].veinsmobility 	minSpeed 	32.937554724742
scalar MyScenario.node[79].veinsmobility 	maxSpeed 	33.0861424613
scalar MyScenario.node[79].veinsmobility 	totalDistance 	902.1468699273
scalar MyScenario.node[79].veinsmobility 	totalCO2Emission 	168.56487422777
[...]
scalar MyScenario.node[28].nic.mac1609_4 	SNIRLostPackets 	0
scalar MyScenario.node[28].nic.mac1609_4 	RXTXLostPackets 	0
scalar MyScenario.node[28].nic.mac1609_4 	TotalLostPackets 	0
scalar MyScenario.node[28].nic.mac1609_4 	DroppedPacketsInMac 	0
scalar MyScenario.node[28].nic.mac1609_4 	TooLittleTime 	0
scalar MyScenario.node[28].nic.mac1609_4 	TimesIntoBackoff 	100
scalar MyScenario.node[28].nic.mac1609_4 	SlotsBackoff 	153
scalar MyScenario.node[28].nic.mac1609_4 	NumInternalContention 	0
scalar MyScenario.node[28].nic.mac1609_4 	totalBusyTime 	0.072692
scalar MyScenario.node[28].veinsmobility 	startTime 	18000
scalar MyScenario.node[28].veinsmobility 	totalTime 	100
scalar MyScenario.node[28].veinsmobility 	stopTime 	18100
scalar MyScenario.node[28].veinsmobility 	minSpeed 	0
scalar MyScenario.node[28].veinsmobility 	maxSpeed 	13.001543524095
scalar MyScenario.node[28].veinsmobility 	totalDistance 	700.68028099652
scalar MyScenario.node[28].veinsmobility 	totalCO2Emission 	202.23847044382
scalar MyScenario.node[29].appl 	generatedWSMs 	0
scalar MyScenario.node[29].appl 	receivedWSMs 	0
scalar MyScenario.node[29].appl 	generatedBSMs 	100
scalar MyScenario.node[29].appl 	receivedBSMs 	153
scalar MyScenario.node[29].appl 	generatedWSAs 	0
scalar MyScenario.node[29].appl 	receivedWSAs 	0
scalar MyScenario.node[29].nic.phy80211p 	busyTime 	0.00015912
scalar MyScenario.node[29].nic.mac1609_4 	ReceivedUnicastPackets 	0
scalar MyScenario.node[29].nic.mac1609_4 	ReceivedBroadcasts 	153
scalar MyScenario.node[29].nic.mac1609_4 	SentPackets 	100
scalar MyScenario.node[29].nic.mac1609_4 	SNIRLostPackets 	0
scalar MyScenario.node[29].nic.mac1609_4 	RXTXLostPackets 	0
scalar MyScenario.node[29].nic.mac1609_4 	TotalLostPackets 	0
scalar MyScenario.node[29].nic.mac1609_4 	DroppedPacketsInMac 	0
scalar MyScenario.node[29].nic.mac1609_4 	TooLittleTime 	0
scalar MyScenario.node[29].nic.mac1609_4 	TimesIntoBackoff 	100
scalar MyScenario.node[29].nic.mac1609_4 	SlotsBackoff 	157
scalar MyScenario.node[29].nic.mac1609_4 	NumInternalContention 	0
scalar MyScenario.node[29].nic.mac1609_4 	totalBusyTime 	0.026412
scalar MyScenario.node[29].veinsmobility 	startTime 	18000
scalar MyScenario.node[29].veinsmobility 	totalTime 	100
scalar MyScenario.node[29].veinsmobility 	stopTime 	18100
scalar MyScenario.node[29].veinsmobility 	minSpeed 	4.5409667907411e-14
scalar MyScenario.node[29].veinsmobility 	maxSpeed 	18.087524419913
scalar MyScenario.node[29].veinsmobility 	totalDistance 	1304.9721977811
scalar MyScenario.node[29].veinsmobility 	totalCO2Emission 	269.64020312667
scalar MyScenario.node[30].appl 	generatedWSMs 	0
scalar MyScenario.node[30].appl 	receivedWSMs 	0
scalar MyScenario.node[30].appl 	generatedBSMs 	100
scalar MyScenario.node[30].appl 	receivedBSMs 	389
scalar MyScenario.node[30].appl 	generatedWSAs 	0
scalar MyScenario.node[30].appl 	receivedWSAs 	0
scalar MyScenario.node[30].nic.phy80211p 	busyTime 	0.00040456
scalar MyScenario.node[30].nic.mac1609_4 	ReceivedUnicastPackets 	0
scalar MyScenario.node[30].nic.mac1609_4 	ReceivedBroadcasts 	389
scalar MyScenario.node[30].nic.mac1609_4 	SentPackets 	100
scalar MyScenario.node[30].nic.mac1609_4 	SNIRLostPackets 	0
scalar MyScenario.node[30].nic.mac1609_4 	RXTXLostPackets 	0
scalar MyScenario.node[30].nic.mac1609_4 	TotalLostPackets 	0
scalar MyScenario.node[30].nic.mac1609_4 	DroppedPacketsInMac 	0
scalar MyScenario.node[30].nic.mac1609_4 	TooLittleTime 	0
scalar MyScenario.node[30].nic.mac1609_4 	TimesIntoBackoff 	100
scalar MyScenario.node[30].nic.mac1609_4 	SlotsBackoff 	168
scalar MyScenario.node[30].nic.mac1609_4 	NumInternalContention 	0
scalar MyScenario.node[30].nic.mac1609_4 	totalBusyTime 	0.050956
scalar MyScenario.node[30].veinsmobility 	startTime 	18000
scalar MyScenario.node[30].veinsmobility 	totalTime 	100
scalar MyScenario.node[30].veinsmobility 	stopTime 	18100
scalar MyScenario.node[30].veinsmobility 	minSpeed 	0
scalar MyScenario.node[30].veinsmobility 	maxSpeed 	12.582711520558
scalar MyScenario.node[30].veinsmobility 	totalDistance 	953.9499248042
scalar MyScenario.node[30].veinsmobility 	totalCO2Emission 	234.4792442591
scalar MyScenario.node[31].appl 	generatedWSMs 	0
scalar MyScenario.node[31].appl 	receivedWSMs 	0
scalar MyScenario.node[31].appl 	generatedBSMs 	100
scalar MyScenario.node[31].appl 	receivedBSMs 	198
scalar MyScenario.node[31].appl 	generatedWSAs 	0
scalar MyScenario.node[31].appl 	receivedWSAs 	0
scalar MyScenario.node[31].nic.phy80211p 	busyTime 	0.00020592
scalar MyScenario.node[31].nic.mac1609_4 	ReceivedUnicastPackets 	0
scalar MyScenario.node[31].nic.mac1609_4 	ReceivedBroadcasts 	198
scalar MyScenario.node[31].nic.mac1609_4 	SentPackets 	100
scalar MyScenario.node[31].nic.mac1609_4 	SNIRLostPackets 	0
scalar MyScenario.node[31].nic.mac1609_4 	RXTXLostPackets 	0
scalar MyScenario.node[31].nic.mac1609_4 	TotalLostPackets 	0
scalar MyScenario.node[31].nic.mac1609_4 	DroppedPacketsInMac 	0
scalar MyScenario.node[31].nic.mac1609_4 	TooLittleTime 	0
scalar MyScenario.node[31].nic.mac1609_4 	TimesIntoBackoff 	100
scalar MyScenario.node[31].nic.mac1609_4 	SlotsBackoff 	152
scalar MyScenario.node[31].nic.mac1609_4 	NumInternalContention 	0
scalar MyScenario.node[31].nic.mac1609_4 	totalBusyTime 	0.031092
scalar MyScenario.node[31].veinsmobility 	startTime 	18000
scalar MyScenario.node[31].veinsmobility 	totalTime 	100
scalar MyScenario.node[31].veinsmobility 	stopTime 	18100
scalar MyScenario.node[31].veinsmobility 	minSpeed 	4.5361318430663e-14
scalar MyScenario.node[31].veinsmobility 	maxSpeed 	17.401935664267
scalar MyScenario.node[31].veinsmobility 	totalDistance 	609.02660321913
scalar MyScenario.node[31].veinsmobility 	totalCO2Emission 	221.69621958282
scalar MyScenario.node[94].appl 	generatedWSMs 	0
scalar MyScenario.node[94].appl 	receivedWSMs 	0
scalar MyScenario.node[94].appl 	generatedBSMs 	10
scalar MyScenario.node[94].appl 	receivedBSMs 	78
scalar MyScenario.node[94].appl 	generatedWSAs 	0
scalar MyScenario.node[94].appl 	receivedWSAs 	0
scalar MyScenario.node[94].nic.phy80211p 	busyTime 	0.00086297872340425
scalar MyScenario.node[94].nic.mac1609_4 	ReceivedUnicastPackets 	0
scalar MyScenario.node[94].nic.mac1609_4 	ReceivedBroadcasts 	78
scalar MyScenario.node[94].nic.mac1609_4 	SentPackets 	10
scalar MyScenario.node[94].nic.mac1609_4 	SNIRLostPackets 	0
scalar MyScenario.node[94].nic.mac1609_4 	RXTXLostPackets 	0
scalar MyScenario.node[94].nic.mac1609_4 	TotalLostPackets 	0
scalar MyScenario.node[94].nic.mac1609_4 	DroppedPacketsInMac 	0
scalar MyScenario.node[94].nic.mac1609_4 	TooLittleTime 	0
scalar MyScenario.node[94].nic.mac1609_4 	TimesIntoBackoff 	10
scalar MyScenario.node[94].nic.mac1609_4 	SlotsBackoff 	16
scalar MyScenario.node[94].nic.mac1609_4 	NumInternalContention 	0
scalar MyScenario.node[94].nic.mac1609_4 	totalBusyTime 	0.009162
scalar MyScenario.node[94].veinsmobility 	startTime 	18090.6
scalar MyScenario.node[94].veinsmobility 	totalTime 	9.4
scalar MyScenario.node[94].veinsmobility 	stopTime 	18100
scalar MyScenario.node[94].veinsmobility 	minSpeed 	29.5372200877
scalar MyScenario.node[94].veinsmobility 	maxSpeed 	37.30049302793
scalar MyScenario.node[94].veinsmobility 	totalDistance 	333.43712163902
scalar MyScenario.node[94].veinsmobility 	totalCO2Emission 	126.9537140289
scalar MyScenario.node[32].appl 	generatedWSMs 	0
scalar MyScenario.node[32].appl 	receivedWSMs 	0
scalar MyScenario.node[32].appl 	generatedBSMs 	100
scalar MyScenario.node[32].appl 	receivedBSMs 	767
scalar MyScenario.node[32].appl 	generatedWSAs 	0
scalar MyScenario.node[32].appl 	receivedWSAs 	0
scalar MyScenario.node[32].nic.phy80211p 	busyTime 	0.00079768000000001
scalar MyScenario.node[32].nic.mac1609_4 	ReceivedUnicastPackets 	0
scalar MyScenario.node[32].nic.mac1609_4 	ReceivedBroadcasts 	767
scalar MyScenario.node[32].nic.mac1609_4 	SentPackets 	100
scalar MyScenario.node[32].nic.mac1609_4 	SNIRLostPackets 	0
scalar MyScenario.node[32].nic.mac1609_4 	RXTXLostPackets 	0
scalar MyScenario.node[32].nic.mac1609_4 	TotalLostPackets 	0
scalar MyScenario.node[32].nic.mac1609_4 	DroppedPacketsInMac 	0
scalar MyScenario.node[32].nic.mac1609_4 	TooLittleTime 	0
scalar MyScenario.node[32].nic.mac1609_4 	TimesIntoBackoff 	100
scalar MyScenario.node[32].nic.mac1609_4 	SlotsBackoff 	139
scalar MyScenario.node[32].nic.mac1609_4 	NumInternalContention 	0
scalar MyScenario.node[32].nic.mac1609_4 	totalBusyTime 	0.090268
scalar MyScenario.node[32].veinsmobility 	startTime 	18000
scalar MyScenario.node[32].veinsmobility 	totalTime 	100
scalar MyScenario.node[32].veinsmobility 	stopTime 	18100
scalar MyScenario.node[32].veinsmobility 	minSpeed 	0
scalar MyScenario.node[32].veinsmobility 	maxSpeed 	15.074017366287
scalar MyScenario.node[32].veinsmobility 	totalDistance 	816.62765141052
scalar MyScenario.node[32].veinsmobility 	totalCO2Emission 	202.4015863699
scalar MyScenario.node[102].appl 	generatedWSMs 	0
scalar MyScenario.node[102].appl 	receivedWSMs 	0
scalar MyScenario.node[102].appl 	generatedBSMs 	1
scalar MyScenario.node[102].appl 	receivedBSMs 	3
scalar MyScenario.node[102].appl 	generatedWSAs 	0
scalar MyScenario.node[102].appl 	receivedWSAs 	0
scalar MyScenario.node[102].nic.phy80211p 	busyTime 	0.00018352941176471
scalar MyScenario.node[102].nic.mac1609_4 	ReceivedUnicastPackets 	0
scalar MyScenario.node[102].nic.mac1609_4 	ReceivedBroadcasts 	3
scalar MyScenario.node[102].nic.mac1609_4 	SentPackets 	1
scalar MyScenario.node[102].nic.mac1609_4 	SNIRLostPackets 	0
scalar MyScenario.node[102].nic.mac1609_4 	RXTXLostPackets 	0
scalar MyScenario.node[102].nic.mac1609_4 	TotalLostPackets 	0
scalar MyScenario.node[102].nic.mac1609_4 	DroppedPacketsInMac 	0
scalar MyScenario.node[102].nic.mac1609_4 	TooLittleTime 	0
scalar MyScenario.node[102].nic.mac1609_4 	TimesIntoBackoff 	1
scalar MyScenario.node[102].nic.mac1609_4 	SlotsBackoff 	2
scalar MyScenario.node[102].nic.mac1609_4 	NumInternalContention 	0
scalar MyScenario.node[102].nic.mac1609_4 	totalBusyTime 	0.000417
scalar MyScenario.node[102].veinsmobility 	startTime 	18098.3
scalar MyScenario.node[102].veinsmobility 	totalTime 	1.7
scalar MyScenario.node[102].veinsmobility 	stopTime 	18100
scalar MyScenario.node[102].veinsmobility 	minSpeed 	16.081276427622
scalar MyScenario.node[102].veinsmobility 	maxSpeed 	16.253761934962
scalar MyScenario.node[102].veinsmobility 	totalDistance 	27.576212926547
scalar MyScenario.node[102].veinsmobility 	totalCO2Emission 	4.3481622138583
scalar MyScenario.node[33].appl 	generatedWSMs 	0
scalar MyScenario.node[33].appl 	receivedWSMs 	0
scalar MyScenario.node[33].appl 	generatedBSMs 	100
scalar MyScenario.node[33].appl 	receivedBSMs 	379
scalar MyScenario.node[33].appl 	generatedWSAs 	0
scalar MyScenario.node[33].appl 	receivedWSAs 	0
scalar MyScenario.node[33].nic.phy80211p 	busyTime 	0.00039416
scalar MyScenario.node[33].nic.mac1609_4 	ReceivedUnicastPackets 	0
scalar MyScenario.node[33].nic.mac1609_4 	ReceivedBroadcasts 	379
scalar MyScenario.node[33].nic.mac1609_4 	SentPackets 	100
scalar MyScenario.node[33].nic.mac1609_4 	SNIRLostPackets 	0
scalar MyScenario.node[33].nic.mac1609_4 	RXTXLostPackets 	0
scalar MyScenario.node[33].nic.mac1609_4 	TotalLostPackets 	0
scalar MyScenario.node[33].nic.mac1609_4 	DroppedPacketsInMac 	0
scalar MyScenario.node[33].nic.mac1609_4 	TooLittleTime 	0
scalar MyScenario.node[33].nic.mac1609_4 	TimesIntoBackoff 	100
scalar MyScenario.node[33].nic.mac1609_4 	SlotsBackoff 	146
scalar MyScenario.node[33].nic.mac1609_4 	NumInternalContention 	0
scalar MyScenario.node[33].nic.mac1609_4 	totalBusyTime 	0.049916
scalar MyScenario.node[33].veinsmobility 	startTime 	18000
scalar MyScenario.node[33].veinsmobility 	totalTime 	100
scalar MyScenario.node[33].veinsmobility 	stopTime 	18100
scalar MyScenario.node[33].veinsmobility 	minSpeed 	0
scalar MyScenario.node[33].veinsmobility 	maxSpeed 	14.806884793984
scalar MyScenario.node[33].veinsmobility 	totalDistance 	1267.1566498166
scalar MyScenario.node[33].veinsmobility 	totalCO2Emission 	244.68602110398
scalar MyScenario.node[46].appl 	generatedWSMs 	0
scalar MyScenario.node[46].appl 	receivedWSMs 	0
scalar MyScenario.node[46].appl 	generatedBSMs 	95
scalar MyScenario.node[46].appl 	receivedBSMs 	197
scalar MyScenario.node[46].appl 	generatedWSAs 	0
scalar MyScenario.node[46].appl 	receivedWSAs 	0
scalar MyScenario.node[46].nic.phy80211p 	busyTime 	0.0002158904109589
scalar MyScenario.node[46].nic.mac1609_4 	ReceivedUnicastPackets 	0
scalar MyScenario.node[46].nic.mac1609_4 	ReceivedBroadcasts 	197
scalar MyScenario.node[46].nic.mac1609_4 	SentPackets 	95
scalar MyScenario.node[46].nic.mac1609_4 	SNIRLostPackets 	0
scalar MyScenario.node[46].nic.mac1609_4 	RXTXLostPackets 	0
scalar MyScenario.node[46].nic.mac1609_4 	TotalLostPackets 	0
scalar MyScenario.node[46].nic.mac1609_4 	DroppedPacketsInMac 	0
scalar MyScenario.node[46].nic.mac1609_4 	TooLittleTime 	0
scalar MyScenario.node[46].nic.mac1609_4 	TimesIntoBackoff 	95
scalar MyScenario.node[46].nic.mac1609_4 	SlotsBackoff 	147
scalar MyScenario.node[46].nic.mac1609_4 	NumInternalContention 	0
scalar MyScenario.node[46].nic.mac1609_4 	totalBusyTime 	0.030463
scalar MyScenario.node[46].veinsmobility 	startTime 	18005.1
scalar MyScenario.node[46].veinsmobility 	totalTime 	94.9
scalar MyScenario.node[46].veinsmobility 	stopTime 	18100
scalar MyScenario.node[46].veinsmobility 	minSpeed 	4.5380733113111e-14
scalar MyScenario.node[46].veinsmobility 	maxSpeed 	12.457012395411
scalar MyScenario.node[46].veinsmobility 	totalDistance 	731.51595087495
scalar MyScenario.node[46].veinsmobility 	totalCO2Emission 	241.77369047816
scalar MyScenario.node[91].appl 	generatedWSMs 	0
scalar MyScenario.node[91].appl 	receivedWSMs 	0
scalar MyScenario.node[91].appl 	generatedBSMs 	21
scalar MyScenario.node[91].appl 	receivedBSMs 	116
scalar MyScenario.node[91].appl 	generatedWSAs 	0
scalar MyScenario.node[91].appl 	receivedWSAs 	0
scalar MyScenario.node[91].nic.phy80211p 	busyTime 	0.00058
scalar MyScenario.node[91].nic.mac1609_4 	ReceivedUnicastPackets 	0
scalar MyScenario.node[91].nic.mac1609_4 	ReceivedBroadcasts 	116
scalar MyScenario.node[91].nic.mac1609_4 	SentPackets 	21
scalar MyScenario.node[91].nic.mac1609_4 	SNIRLostPackets 	0
scalar MyScenario.node[91].nic.mac1609_4 	RXTXLostPackets 	0
scalar MyScenario.node[91].nic.mac1609_4 	TotalLostPackets 	0
scalar MyScenario.node[91].nic.mac1609_4 	DroppedPacketsInMac 	0
scalar MyScenario.node[91].nic.mac1609_4 	TooLittleTime 	0
scalar MyScenario.node[91].nic.mac1609_4 	TimesIntoBackoff 	21
scalar MyScenario.node[91].nic.mac1609_4 	SlotsBackoff 	21
scalar MyScenario.node[91].nic.mac1609_4 	NumInternalContention 	0
scalar MyScenario.node[91].nic.mac1609_4 	totalBusyTime 	0.014269
scalar MyScenario.node[91].veinsmobility 	startTime 	18079.2
scalar MyScenario.node[91].veinsmobility 	totalTime 	20.8
scalar MyScenario.node[91].veinsmobility 	stopTime 	18100
scalar MyScenario.node[91].veinsmobility 	minSpeed 	38.33983405077
scalar MyScenario.node[91].veinsmobility 	maxSpeed 	38.469468805165
scalar MyScenario.node[91].veinsmobility 	totalDistance 	799.65215560383
scalar MyScenario.node[91].veinsmobility 	totalCO2Emission 	169.77486536862
scalar MyScenario.node[36].appl 	generatedWSMs 	0
scalar MyScenario.node[36].appl 	receivedWSMs 	0
scalar MyScenario.node[36].appl 	generatedBSMs 	100
scalar MyScenario.node[36].appl 	receivedBSMs 	623
scalar MyScenario.node[36].appl 	generatedWSAs 	0
scalar MyScenario.node[36].appl 	receivedWSAs 	0
scalar MyScenario.node[36].nic.phy80211p 	busyTime 	0.00064792
scalar MyScenario.node[36].nic.mac1609_4 	ReceivedUnicastPackets 	0
scalar MyScenario.node[36].nic.mac1609_4 	ReceivedBroadcasts 	623
scalar MyScenario.node[36].nic.mac1609_4 	SentPackets 	100
scalar MyScenario.node[36].nic.mac1609_4 	SNIRLostPackets 	0
scalar MyScenario.node[36].nic.mac1609_4 	RXTXLostPackets 	0
scalar MyScenario.node[36].nic.mac1609_4 	TotalLostPackets 	0
scalar MyScenario.node[36].nic.mac1609_4 	DroppedPacketsInMac 	0
scalar MyScenario.node[36].nic.mac1609_4 	TooLittleTime 	0
scalar MyScenario.node[36].nic.mac1609_4 	TimesIntoBackoff 	100
scalar MyScenario.node[36].nic.mac1609_4 	SlotsBackoff 	136
scalar MyScenario.node[36].nic.mac1609_4 	NumInternalContention 	0
scalar MyScenario.node[36].nic.mac1609_4 	totalBusyTime 	0.075292
scalar MyScenario.node[36].veinsmobility 	startTime 	18000
scalar MyScenario.node[36].veinsmobility 	totalTime 	100
scalar MyScenario.node[36].veinsmobility 	stopTime 	18100
scalar MyScenario.node[36].veinsmobility 	minSpeed 	0
scalar MyScenario.node[36].veinsmobility 	maxSpeed 	18.401849790928
scalar MyScenario.node[36].veinsmobility 	totalDistance 	689.44282605103
scalar MyScenario.node[36].veinsmobility 	totalCO2Emission 	228.7461923916
scalar MyScenario.node[58].appl 	generatedWSMs 	0
scalar MyScenario.node[58].appl 	receivedWSMs 	0
scalar MyScenario.node[58].appl 	generatedBSMs 	81
scalar MyScenario.node[58].appl 	receivedBSMs 	543
scalar MyScenario.node[58].appl 	generatedWSAs 	0
scalar MyScenario.node[58].appl 	receivedWSAs 	0
scalar MyScenario.node[58].nic.phy80211p 	busyTime 	0.00069546798029557
scalar MyScenario.node[58].nic.mac1609_4 	ReceivedUnicastPackets 	0
scalar MyScenario.node[58].nic.mac1609_4 	ReceivedBroadcasts 	543
scalar MyScenario.node[58].nic.mac1609_4 	SentPackets 	81
scalar MyScenario.node[58].nic.mac1609_4 	SNIRLostPackets 	0
scalar MyScenario.node[58].nic.mac1609_4 	RXTXLostPackets 	0
scalar MyScenario.node[58].nic.mac1609_4 	TotalLostPackets 	0
scalar MyScenario.node[58].nic.mac1609_4 	DroppedPacketsInMac 	0
scalar MyScenario.node[58].nic.mac1609_4 	TooLittleTime 	0
scalar MyScenario.node[58].nic.mac1609_4 	TimesIntoBackoff 	81
scalar MyScenario.node[58].nic.mac1609_4 	SlotsBackoff 	135
scalar MyScenario.node[58].nic.mac1609_4 	NumInternalContention 	0
scalar MyScenario.node[58].nic.mac1609_4 	totalBusyTime 	0.064977
scalar MyScenario.node[58].veinsmobility 	startTime 	18018.8
scalar MyScenario.node[58].veinsmobility 	totalTime 	81.2
scalar MyScenario.node[58].veinsmobility 	stopTime 	18100
scalar MyScenario.node[58].veinsmobility 	minSpeed 	4.5387083016835e-14
scalar MyScenario.node[58].veinsmobility 	maxSpeed 	13.099089586468
scalar MyScenario.node[58].veinsmobility 	totalDistance 	415.73710062935
scalar MyScenario.node[58].veinsmobility 	totalCO2Emission 	159.49357346689
scalar MyScenario.node[39].appl 	generatedWSMs 	0
scalar MyScenario.node[39].appl 	receivedWSMs 	0
scalar MyScenario.node[39].appl 	generatedBSMs 	100
scalar MyScenario.node[39].appl 	receivedBSMs 	672
scalar MyScenario.node[39].appl 	generatedWSAs 	0
scalar MyScenario.node[39].appl 	receivedWSAs 	0
scalar MyScenario.node[39].nic.phy80211p 	busyTime 	0.00069888
scalar MyScenario.node[39].nic.mac1609_4 	ReceivedUnicastPackets 	0
scalar MyScenario.node[39].nic.mac1609_4 	ReceivedBroadcasts 	672
scalar MyScenario.node[39].nic.mac1609_4 	SentPackets 	100
scalar MyScenario.node[39].nic.mac1609_4 	SNIRLostPackets 	0
scalar MyScenario.node[39].nic.mac1609_4 	RXTXLostPackets 	0
scalar MyScenario.node[39].nic.mac1609_4 	TotalLostPackets 	0
scalar MyScenario.node[39].nic.mac1609_4 	DroppedPacketsInMac 	0
scalar MyScenario.node[39].nic.mac1609_4 	TooLittleTime 	0
scalar MyScenario.node[39].nic.mac1609_4 	TimesIntoBackoff 	100
scalar MyScenario.node[39].nic.mac1609_4 	SlotsBackoff 	151
scalar MyScenario.node[39].nic.mac1609_4 	NumInternalContention 	0
scalar MyScenario.node[39].nic.mac1609_4 	totalBusyTime 	0.080388
scalar MyScenario.node[39].veinsmobility 	startTime 	18000
scalar MyScenario.node[39].veinsmobility 	totalTime 	100
scalar MyScenario.node[39].veinsmobility 	stopTime 	18100
scalar MyScenario.node[39].veinsmobility 	minSpeed 	0
scalar MyScenario.node[39].veinsmobility 	maxSpeed 	10.81504208083
scalar MyScenario.node[39].veinsmobility 	totalDistance 	772.52968803601
scalar MyScenario.node[39].veinsmobility 	totalCO2Emission 	189.08474413616
