version 2
run AttackerType1-31-20180205-16:56:19-104463
attr configname AttackerType1
attr datetime 20180205-16:56:19
attr experiment AttackerType1
attr inifile omnetpp_31.ini
attr iterationvars "$start=7, $0=0.1"
attr iterationvarsf start=7,0.1-
attr measurement "$start=7, $0=0.1"
attr network MyScenario
attr processid 104463
attr repetition 1
attr replication #1
attr resultdir results
attr runnumber 31
attr seedset 1
attr start 7
param **.**.**.debug false
param **.**.nic.**.debug false
param **.coreDebug false
param **.debug false
param *.**.nic.mac1609_4.bitrate 6Mbps
param *.**.nic.mac1609_4.txPower 20mW
param *.**.nic.mac1609_4.useServiceChannel false
param *.**.nic.phy80211p.analogueModels "xmldoc(\"config.xml\")"
param *.**.nic.phy80211p.antenna "xmldoc(\"antenna.xml\", \"/root/Antenna[@id='monopole']\")"
param *.**.nic.phy80211p.decider "xmldoc(\"config.xml\")"
param *.**.nic.phy80211p.sensitivity -89dBm
param *.**.nic.phy80211p.thermalNoise -110dBm
param *.**.nic.phy80211p.usePropagationDelay true
param *.**.nic.phy80211p.useThermalNoise true
param *.**.veinsmobility.x 0
param *.**.veinsmobility.y 0
param *.**.veinsmobility.z 1.895
param *.**.veinsmobilityType.debug false
param *.annotations.draw false
param *.connectionManager.drawMaxIntfDist false
param *.connectionManager.maxInterfDist 2600m
param *.connectionManager.sendDirect true
param *.manager.autoShutdown true
param *.manager.configFile "\"dua.static.sumocfg\""
param *.manager.firstStepAt 7h
param *.manager.host "\"localhost\""
param *.manager.launchConfig "xmldoc(\"luxembourg.launchd.xml\")"
param *.manager.roiRects "\"2300,5400-6300,6300\""
param *.manager.seed 1
param *.manager.updateInterval 0.1s
param *.node[*].appl.attackerProbability 0.1
param *.node[*].appl.attackerType 1
param *.node[*].appl.attackerXPos 5560
param *.node[*].appl.attackerYPos 5820
param *.node[*].appl.beaconInterval 1s
param *.node[*].appl.dataOnSch false
param *.node[*].appl.headerLength "80 bit"
param *.node[*].appl.sendBeacons true
param *.node[*].appl.traceGroundTruthJSONFile "\"GroundTruthJSONlog\""
param *.node[*].appl.traceJSONFile "\"JSONlog-\""
param *.node[*].applType "\"AttackerApp\""
param *.obstacles.debug false
param *.obstacles.obstacles "xmldoc(\"config.xml\", \"//AnalogueModel[@type='SimpleObstacleShadowing']/obstacles\")"
param *.playgroundSizeX 13640m
param *.playgroundSizeY 11500m
param *.playgroundSizeZ 50m

scalar _runattrs_ 	start 	7
scalar MyScenario.node[66].appl 	generatedWSMs 	0
scalar MyScenario.node[66].appl 	receivedWSMs 	0
scalar MyScenario.node[66].appl 	generatedBSMs 	1
scalar MyScenario.node[66].appl 	receivedBSMs 	5
scalar MyScenario.node[66].appl 	generatedWSAs 	0
scalar MyScenario.node[66].appl 	receivedWSAs 	0
scalar MyScenario.node[66].nic.phy80211p 	busyTime 	0.00086666666666667
scalar MyScenario.node[66].nic.mac1609_4 	ReceivedUnicastPackets 	0
scalar MyScenario.node[66].nic.mac1609_4 	ReceivedBroadcasts 	5
scalar MyScenario.node[66].nic.mac1609_4 	SentPackets 	1
scalar MyScenario.node[66].nic.mac1609_4 	SNIRLostPackets 	0
scalar MyScenario.node[66].nic.mac1609_4 	RXTXLostPackets 	0
scalar MyScenario.node[66].nic.mac1609_4 	TotalLostPackets 	0
scalar MyScenario.node[66].nic.mac1609_4 	DroppedPacketsInMac 	0
scalar MyScenario.node[66].nic.mac1609_4 	TooLittleTime 	0
scalar MyScenario.node[66].nic.mac1609_4 	TimesIntoBackoff 	1
scalar MyScenario.node[66].nic.mac1609_4 	SlotsBackoff 	0
scalar MyScenario.node[66].nic.mac1609_4 	NumInternalContention 	0
scalar MyScenario.node[66].nic.mac1609_4 	totalBusyTime 	0.000625
scalar MyScenario.node[66].veinsmobility 	startTime 	25200
scalar MyScenario.node[66].veinsmobility 	totalTime 	0.5
scalar MyScenario.node[66].veinsmobility 	stopTime 	25200.6
scalar MyScenario.node[66].veinsmobility 	minSpeed 	10.812563591339
scalar MyScenario.node[66].veinsmobility 	maxSpeed 	10.92116945795
scalar MyScenario.node[66].veinsmobility 	totalDistance 	5.4307240599724
scalar MyScenario.node[66].veinsmobility 	totalCO2Emission 	0.90820490250125
scalar MyScenario.node[136].appl 	generatedWSMs 	0
scalar MyScenario.node[136].appl 	receivedWSMs 	0
scalar MyScenario.node[136].appl 	generatedBSMs 	1
scalar MyScenario.node[136].appl 	receivedBSMs 	30
scalar MyScenario.node[136].appl 	generatedWSAs 	0
scalar MyScenario.node[136].appl 	receivedWSAs 	0
scalar MyScenario.node[136].nic.phy80211p 	busyTime 	0.0039
scalar MyScenario.node[136].nic.mac1609_4 	ReceivedUnicastPackets 	0
scalar MyScenario.node[136].nic.mac1609_4 	ReceivedBroadcasts 	30
scalar MyScenario.node[136].nic.mac1609_4 	SentPackets 	1
scalar MyScenario.node[136].nic.mac1609_4 	SNIRLostPackets 	0
scalar MyScenario.node[136].nic.mac1609_4 	RXTXLostPackets 	0
scalar MyScenario.node[136].nic.mac1609_4 	TotalLostPackets 	0
scalar MyScenario.node[136].nic.mac1609_4 	DroppedPacketsInMac 	0
scalar MyScenario.node[136].nic.mac1609_4 	TooLittleTime 	0
scalar MyScenario.node[136].nic.mac1609_4 	TimesIntoBackoff 	1
scalar MyScenario.node[136].nic.mac1609_4 	SlotsBackoff 	1
scalar MyScenario.node[136].nic.mac1609_4 	NumInternalContention 	0
scalar MyScenario.node[136].nic.mac1609_4 	totalBusyTime 	0.003225
scalar MyScenario.node[136].veinsmobility 	startTime 	25200
scalar MyScenario.node[136].veinsmobility 	totalTime 	0.7
scalar MyScenario.node[136].veinsmobility 	stopTime 	25200.8
scalar MyScenario.node[136].veinsmobility 	minSpeed 	11.295537618142
scalar MyScenario.node[136].veinsmobility 	maxSpeed 	13.324876910731
scalar MyScenario.node[136].veinsmobility 	totalDistance 	8.6305355676594
scalar MyScenario.node[136].veinsmobility 	totalCO2Emission 	0.5838
scalar MyScenario.node[186].appl 	generatedWSMs 	0
scalar MyScenario.node[186].appl 	receivedWSMs 	0
scalar MyScenario.node[186].appl 	generatedBSMs 	1
scalar MyScenario.node[186].appl 	receivedBSMs 	6
scalar MyScenario.node[186].appl 	generatedWSAs 	0
scalar MyScenario.node[186].appl 	receivedWSAs 	0
scalar MyScenario.node[186].nic.phy80211p 	busyTime 	0.00048
scalar MyScenario.node[186].nic.mac1609_4 	ReceivedUnicastPackets 	0
scalar MyScenario.node[186].nic.mac1609_4 	ReceivedBroadcasts 	6
scalar MyScenario.node[186].nic.mac1609_4 	SentPackets 	1
scalar MyScenario.node[186].nic.mac1609_4 	SNIRLostPackets 	0
scalar MyScenario.node[186].nic.mac1609_4 	RXTXLostPackets 	0
scalar MyScenario.node[186].nic.mac1609_4 	TotalLostPackets 	0
scalar MyScenario.node[186].nic.mac1609_4 	DroppedPacketsInMac 	0
scalar MyScenario.node[186].nic.mac1609_4 	TooLittleTime 	0
scalar MyScenario.node[186].nic.mac1609_4 	TimesIntoBackoff 	1
scalar MyScenario.node[186].nic.mac1609_4 	SlotsBackoff 	3
scalar MyScenario.node[186].nic.mac1609_4 	NumInternalContention 	0
scalar MyScenario.node[186].nic.mac1609_4 	totalBusyTime 	0.000729
scalar MyScenario.node[186].veinsmobility 	startTime 	25200
scalar MyScenario.node[186].veinsmobility 	totalTime 	1.2
scalar MyScenario.node[186].veinsmobility 	stopTime 	25201.3
scalar MyScenario.node[186].veinsmobility 	minSpeed 	13.243224532985
scalar MyScenario.node[186].veinsmobility 	maxSpeed 	13.341124327375
scalar MyScenario.node[186].veinsmobility 	totalDistance 	15.983807686292
scalar MyScenario.node[186].veinsmobility 	totalCO2Emission 	2.235852444047
scalar MyScenario.node[83].appl 	generatedWSMs 	0
scalar MyScenario.node[83].appl 	receivedWSMs 	0
scalar MyScenario.node[83].appl 	generatedBSMs 	2
scalar MyScenario.node[83].appl 	receivedBSMs 	74
scalar MyScenario.node[83].appl 	generatedWSAs 	0
scalar MyScenario.node[83].appl 	receivedWSAs 	0
scalar MyScenario.node[83].nic.phy80211p 	busyTime 	0.0036647619047619
scalar MyScenario.node[83].nic.mac1609_4 	ReceivedUnicastPackets 	0
scalar MyScenario.node[83].nic.mac1609_4 	ReceivedBroadcasts 	74
scalar MyScenario.node[83].nic.mac1609_4 	SentPackets 	2
scalar MyScenario.node[83].nic.mac1609_4 	SNIRLostPackets 	0
scalar MyScenario.node[83].nic.mac1609_4 	RXTXLostPackets 	0
scalar MyScenario.node[83].nic.mac1609_4 	TotalLostPackets 	0
scalar MyScenario.node[83].nic.mac1609_4 	DroppedPacketsInMac 	0
scalar MyScenario.node[83].nic.mac1609_4 	TooLittleTime 	0
scalar MyScenario.node[83].nic.mac1609_4 	TimesIntoBackoff 	2
scalar MyScenario.node[83].nic.mac1609_4 	SlotsBackoff 	2
scalar MyScenario.node[83].nic.mac1609_4 	NumInternalContention 	0
scalar MyScenario.node[83].nic.mac1609_4 	totalBusyTime 	0.007906
scalar MyScenario.node[83].veinsmobility 	startTime 	25200
scalar MyScenario.node[83].veinsmobility 	totalTime 	2
scalar MyScenario.node[83].veinsmobility 	stopTime 	25202.1
scalar MyScenario.node[83].veinsmobility 	minSpeed 	8.0312896510255
scalar MyScenario.node[83].veinsmobility 	maxSpeed 	11.656935278545
scalar MyScenario.node[83].veinsmobility 	totalDistance 	19.474505039568
scalar MyScenario.node[83].veinsmobility 	totalCO2Emission 	11.878933898711
scalar MyScenario.node[10].appl 	generatedWSMs 	0
scalar MyScenario.node[10].appl 	receivedWSMs 	0
scalar MyScenario.node[10].appl 	generatedBSMs 	3
scalar MyScenario.node[10].appl 	receivedBSMs 	48
scalar MyScenario.node[10].appl 	generatedWSAs 	0
scalar MyScenario.node[10].appl 	receivedWSAs 	0
scalar MyScenario.node[10].nic.phy80211p 	busyTime 	0.00208
scalar MyScenario.node[10].nic.mac1609_4 	ReceivedUnicastPackets 	0
scalar MyScenario.node[10].nic.mac1609_4 	ReceivedBroadcasts 	48
scalar MyScenario.node[10].nic.mac1609_4 	SentPackets 	3
scalar MyScenario.node[10].nic.mac1609_4 	SNIRLostPackets 	0
scalar MyScenario.node[10].nic.mac1609_4 	RXTXLostPackets 	0
scalar MyScenario.node[10].nic.mac1609_4 	TotalLostPackets 	0
scalar MyScenario.node[10].nic.mac1609_4 	DroppedPacketsInMac 	0
scalar MyScenario.node[10].nic.mac1609_4 	TooLittleTime 	0
scalar MyScenario.node[10].nic.mac1609_4 	TimesIntoBackoff 	3
scalar MyScenario.node[10].nic.mac1609_4 	SlotsBackoff 	3
scalar MyScenario.node[10].nic.mac1609_4 	NumInternalContention 	0
scalar MyScenario.node[10].nic.mac1609_4 	totalBusyTime 	0.005307
scalar MyScenario.node[10].veinsmobility 	startTime 	25200
scalar MyScenario.node[10].veinsmobility 	totalTime 	2.3
scalar MyScenario.node[10].veinsmobility 	stopTime 	25202.4
scalar MyScenario.node[10].veinsmobility 	minSpeed 	29.88206208067
scalar MyScenario.node[10].veinsmobility 	maxSpeed 	29.997170741754
scalar MyScenario.node[10].veinsmobility 	totalDistance 	68.782541554178
scalar MyScenario.node[10].veinsmobility 	totalCO2Emission 	11.774163104442
scalar MyScenario.node[89].appl 	generatedWSMs 	0
scalar MyScenario.node[89].appl 	receivedWSMs 	0
scalar MyScenario.node[89].appl 	generatedBSMs 	3
scalar MyScenario.node[89].appl 	receivedBSMs 	3
scalar MyScenario.node[89].appl 	generatedWSAs 	0
scalar MyScenario.node[89].appl 	receivedWSAs 	0
scalar MyScenario.node[89].nic.phy80211p 	busyTime 	0.00011555555555556
scalar MyScenario.node[89].nic.mac1609_4 	ReceivedUnicastPackets 	0
scalar MyScenario.node[89].nic.mac1609_4 	ReceivedBroadcasts 	3
scalar MyScenario.node[89].nic.mac1609_4 	SentPackets 	3
scalar MyScenario.node[89].nic.mac1609_4 	SNIRLostPackets 	0
scalar MyScenario.node[89].nic.mac1609_4 	RXTXLostPackets 	0
scalar MyScenario.node[89].nic.mac1609_4 	TotalLostPackets 	0
scalar MyScenario.node[89].nic.mac1609_4 	DroppedPacketsInMac 	0
scalar MyScenario.node[89].nic.mac1609_4 	TooLittleTime 	0
scalar MyScenario.node[89].nic.mac1609_4 	TimesIntoBackoff 	3
scalar MyScenario.node[89].nic.mac1609_4 	SlotsBackoff 	3
scalar MyScenario.node[89].nic.mac1609_4 	NumInternalContention 	0
scalar MyScenario.node[89].nic.mac1609_4 	totalBusyTime 	0.000627
scalar MyScenario.node[89].veinsmobility 	startTime 	25200
scalar MyScenario.node[89].veinsmobility 	totalTime 	2.6
scalar MyScenario.node[89].veinsmobility 	stopTime 	25202.7
scalar MyScenario.node[89].veinsmobility 	minSpeed 	12.856215275443
scalar MyScenario.node[89].veinsmobility 	maxSpeed 	13.070992782978
scalar MyScenario.node[89].veinsmobility 	totalDistance 	33.781002078417
scalar MyScenario.node[89].veinsmobility 	totalCO2Emission 	6.5064987101878
scalar MyScenario.node[54].appl 	generatedWSMs 	0
scalar MyScenario.node[54].appl 	receivedWSMs 	0
scalar MyScenario.node[54].appl 	generatedBSMs 	3
scalar MyScenario.node[54].appl 	receivedBSMs 	62
scalar MyScenario.node[54].appl 	generatedWSAs 	0
scalar MyScenario.node[54].appl 	receivedWSAs 	0
scalar MyScenario.node[54].nic.phy80211p 	busyTime 	0.0021493333333333
scalar MyScenario.node[54].nic.mac1609_4 	ReceivedUnicastPackets 	0
scalar MyScenario.node[54].nic.mac1609_4 	ReceivedBroadcasts 	62
scalar MyScenario.node[54].nic.mac1609_4 	SentPackets 	3
scalar MyScenario.node[54].nic.mac1609_4 	SNIRLostPackets 	0
scalar MyScenario.node[54].nic.mac1609_4 	RXTXLostPackets 	0
scalar MyScenario.node[54].nic.mac1609_4 	TotalLostPackets 	0
scalar MyScenario.node[54].nic.mac1609_4 	DroppedPacketsInMac 	0
scalar MyScenario.node[54].nic.mac1609_4 	TooLittleTime 	0
scalar MyScenario.node[54].nic.mac1609_4 	TimesIntoBackoff 	3
scalar MyScenario.node[54].nic.mac1609_4 	SlotsBackoff 	5
scalar MyScenario.node[54].nic.mac1609_4 	NumInternalContention 	0
scalar MyScenario.node[54].nic.mac1609_4 	totalBusyTime 	0.006763
scalar MyScenario.node[54].veinsmobility 	startTime 	25200
scalar MyScenario.node[54].veinsmobility 	totalTime 	2.9
scalar MyScenario.node[54].veinsmobility 	stopTime 	25203
scalar MyScenario.node[54].veinsmobility 	minSpeed 	0.29034902843297
scalar MyScenario.node[54].veinsmobility 	maxSpeed 	6.9536558543956
scalar MyScenario.node[54].veinsmobility 	totalDistance 	10.875160613739
scalar MyScenario.node[54].veinsmobility 	totalCO2Emission 	9.6692517496424
scalar MyScenario.node[0].appl 	generatedWSMs 	0
scalar MyScenario.node[0].appl 	receivedWSMs 	0
scalar MyScenario.node[0].appl 	generatedBSMs 	4
scalar MyScenario.node[0].appl 	receivedBSMs 	71
scalar MyScenario.node[0].appl 	generatedWSAs 	0
scalar MyScenario.node[0].appl 	receivedWSAs 	0
scalar MyScenario.node[0].nic.phy80211p 	busyTime 	0.0020511111111111
scalar MyScenario.node[0].nic.mac1609_4 	ReceivedUnicastPackets 	0
scalar MyScenario.node[0].nic.mac1609_4 	ReceivedBroadcasts 	71
scalar MyScenario.node[0].nic.mac1609_4 	SentPackets 	4
scalar MyScenario.node[0].nic.mac1609_4 	SNIRLostPackets 	0
scalar MyScenario.node[0].nic.mac1609_4 	RXTXLostPackets 	0
scalar MyScenario.node[0].nic.mac1609_4 	TotalLostPackets 	0
scalar MyScenario.node[0].nic.mac1609_4 	DroppedPacketsInMac 	0
scalar MyScenario.node[0].nic.mac1609_4 	TooLittleTime 	0
scalar MyScenario.node[0].nic.mac1609_4 	TimesIntoBackoff 	4
scalar MyScenario.node[0].nic.mac1609_4 	SlotsBackoff 	6
scalar MyScenario.node[0].nic.mac1609_4 	NumInternalContention 	0
scalar MyScenario.node[0].nic.mac1609_4 	totalBusyTime 	0.007804
scalar MyScenario.node[0].veinsmobility 	startTime 	25200
scalar MyScenario.node[0].veinsmobility 	totalTime 	3.5
scalar MyScenario.node[0].veinsmobility 	stopTime 	25203.6
scalar MyScenario.node[0].veinsmobility 	minSpeed 	29.865547048403
scalar MyScenario.node[0].veinsmobility 	maxSpeed 	30.008729008759
scalar MyScenario.node[0].veinsmobility 	totalDistance 	104.66392145531
scalar MyScenario.node[0].veinsmobility 	totalCO2Emission 	17.072816714566
scalar MyScenario.node[192].appl 	generatedWSMs 	0
scalar MyScenario.node[192].appl 	receivedWSMs 	0
scalar MyScenario.node[192].appl 	generatedBSMs 	4
scalar MyScenario.node[192].appl 	receivedBSMs 	78
scalar MyScenario.node[192].appl 	generatedWSAs 	0
scalar MyScenario.node[192].appl 	receivedWSAs 	0
scalar MyScenario.node[192].nic.phy80211p 	busyTime 	0.0021924324324324
scalar MyScenario.node[192].nic.mac1609_4 	ReceivedUnicastPackets 	0
scalar MyScenario.node[192].nic.mac1609_4 	ReceivedBroadcasts 	78
scalar MyScenario.node[192].nic.mac1609_4 	SentPackets 	4
scalar MyScenario.node[192].nic.mac1609_4 	SNIRLostPackets 	0
scalar MyScenario.node[192].nic.mac1609_4 	RXTXLostPackets 	0
scalar MyScenario.node[192].nic.mac1609_4 	TotalLostPackets 	0
scalar MyScenario.node[192].nic.mac1609_4 	DroppedPacketsInMac 	0
scalar MyScenario.node[192].nic.mac1609_4 	TooLittleTime 	0
scalar MyScenario.node[192].nic.mac1609_4 	TimesIntoBackoff 	4
scalar MyScenario.node[192].nic.mac1609_4 	SlotsBackoff 	11
scalar MyScenario.node[192].nic.mac1609_4 	NumInternalContention 	0
scalar MyScenario.node[192].nic.mac1609_4 	totalBusyTime 	0.008532
scalar MyScenario.node[192].veinsmobility 	startTime 	25200
scalar MyScenario.node[192].veinsmobility 	totalTime 	3.6
scalar MyScenario.node[192].veinsmobility 	stopTime 	25203.7
scalar MyScenario.node[192].veinsmobility 	minSpeed 	0.27055199331464
scalar MyScenario.node[192].veinsmobility 	maxSpeed 	7.6140579853226
scalar MyScenario.node[192].veinsmobility 	totalDistance 	15.084258412834
scalar MyScenario.node[192].veinsmobility 	totalCO2Emission 	11.824851846561
scalar MyScenario.node[121].appl 	generatedWSMs 	0
scalar MyScenario.node[121].appl 	receivedWSMs 	0
scalar MyScenario.node[121].appl 	generatedBSMs 	5
scalar MyScenario.node[121].appl 	receivedBSMs 	93
scalar MyScenario.node[121].appl 	generatedWSAs 	0
scalar MyScenario.node[121].appl 	receivedWSAs 	0
scalar MyScenario.node[121].nic.phy80211p 	busyTime 	0.0019738775510204
scalar MyScenario.node[121].nic.mac1609_4 	ReceivedUnicastPackets 	0
scalar MyScenario.node[121].nic.mac1609_4 	ReceivedBroadcasts 	93
scalar MyScenario.node[121].nic.mac1609_4 	SentPackets 	5
scalar MyScenario.node[121].nic.mac1609_4 	SNIRLostPackets 	0
scalar MyScenario.node[121].nic.mac1609_4 	RXTXLostPackets 	0
scalar MyScenario.node[121].nic.mac1609_4 	TotalLostPackets 	0
scalar MyScenario.node[121].nic.mac1609_4 	DroppedPacketsInMac 	0
scalar MyScenario.node[121].nic.mac1609_4 	TooLittleTime 	0
scalar MyScenario.node[121].nic.mac1609_4 	TimesIntoBackoff 	5
scalar MyScenario.node[121].nic.mac1609_4 	SlotsBackoff 	10
scalar MyScenario.node[121].nic.mac1609_4 	NumInternalContention 	0
scalar MyScenario.node[121].nic.mac1609_4 	totalBusyTime 	0.010197
scalar MyScenario.node[121].veinsmobility 	startTime 	25200
scalar MyScenario.node[121].veinsmobility 	totalTime 	4.8
scalar MyScenario.node[121].veinsmobility 	stopTime 	25204.9
scalar MyScenario.node[121].veinsmobility 	minSpeed 	29.858768690998
scalar MyScenario.node[121].veinsmobility 	maxSpeed 	30.039139990932
scalar MyScenario.node[121].veinsmobility 	totalDistance 	143.56847900153
scalar MyScenario.node[121].veinsmobility 	totalCO2Emission 	24.912380227873
scalar MyScenario.node[13].appl 	generatedWSMs 	0
scalar MyScenario.node[13].appl 	receivedWSMs 	0
scalar MyScenario.node[13].appl 	generatedBSMs 	5
scalar MyScenario.node[13].appl 	receivedBSMs 	183
scalar MyScenario.node[13].appl 	generatedWSAs 	0
scalar MyScenario.node[13].appl 	receivedWSAs 	0
scalar MyScenario.node[13].nic.phy80211p 	busyTime 	0.00366
scalar MyScenario.node[13].nic.mac1609_4 	ReceivedUnicastPackets 	0
scalar MyScenario.node[13].nic.mac1609_4 	ReceivedBroadcasts 	183
scalar MyScenario.node[13].nic.mac1609_4 	SentPackets 	5
scalar MyScenario.node[13].nic.mac1609_4 	SNIRLostPackets 	0
scalar MyScenario.node[13].nic.mac1609_4 	RXTXLostPackets 	0
scalar MyScenario.node[13].nic.mac1609_4 	TotalLostPackets 	0
scalar MyScenario.node[13].nic.mac1609_4 	DroppedPacketsInMac 	0
scalar MyScenario.node[13].nic.mac1609_4 	TooLittleTime 	0
scalar MyScenario.node[13].nic.mac1609_4 	TimesIntoBackoff 	5
scalar MyScenario.node[13].nic.mac1609_4 	SlotsBackoff 	9
scalar MyScenario.node[13].nic.mac1609_4 	NumInternalContention 	0
scalar MyScenario.node[13].nic.mac1609_4 	totalBusyTime 	0.019557
scalar MyScenario.node[13].veinsmobility 	startTime 	25200
scalar MyScenario.node[13].veinsmobility 	totalTime 	5.1
scalar MyScenario.node[13].veinsmobility 	stopTime 	25205.2
scalar MyScenario.node[13].veinsmobility 	minSpeed 	29.880122477682
scalar MyScenario.node[13].veinsmobility 	maxSpeed 	29.99645462486
scalar MyScenario.node[13].veinsmobility 	totalDistance 	152.85567335444
scalar MyScenario.node[13].veinsmobility 	totalCO2Emission 	25.632295329454
scalar MyScenario.node[11].appl 	generatedWSMs 	0
scalar MyScenario.node[11].appl 	receivedWSMs 	0
scalar MyScenario.node[11].appl 	generatedBSMs 	6
scalar MyScenario.node[11].appl 	receivedBSMs 	136
scalar MyScenario.node[11].appl 	generatedWSAs 	0
scalar MyScenario.node[11].appl 	receivedWSAs 	0
scalar MyScenario.node[11].nic.phy80211p 	busyTime 	0.0023186885245902
scalar MyScenario.node[11].nic.mac1609_4 	ReceivedUnicastPackets 	0
scalar MyScenario.node[11].nic.mac1609_4 	ReceivedBroadcasts 	136
scalar MyScenario.node[11].nic.mac1609_4 	SentPackets 	6
scalar MyScenario.node[11].nic.mac1609_4 	SNIRLostPackets 	0
scalar MyScenario.node[11].nic.mac1609_4 	RXTXLostPackets 	0
scalar MyScenario.node[11].nic.mac1609_4 	TotalLostPackets 	0
scalar MyScenario.node[11].nic.mac1609_4 	DroppedPacketsInMac 	0
scalar MyScenario.node[11].nic.mac1609_4 	TooLittleTime 	0
scalar MyScenario.node[11].nic.mac1609_4 	TimesIntoBackoff 	6
scalar MyScenario.node[11].nic.mac1609_4 	SlotsBackoff 	10
scalar MyScenario.node[11].nic.mac1609_4 	NumInternalContention 	0
scalar MyScenario.node[11].nic.mac1609_4 	totalBusyTime 	0.014774
scalar MyScenario.node[11].veinsmobility 	startTime 	25200
scalar MyScenario.node[11].veinsmobility 	totalTime 	6
scalar MyScenario.node[11].veinsmobility 	stopTime 	25206.1
scalar MyScenario.node[11].veinsmobility 	minSpeed 	29.808714784809
scalar MyScenario.node[11].veinsmobility 	maxSpeed 	30.045963691802
scalar MyScenario.node[11].veinsmobility 	totalDistance 	179.48358691429
scalar MyScenario.node[11].veinsmobility 	totalCO2Emission 	33.516737443094
scalar MyScenario.node[19].appl 	generatedWSMs 	0
scalar MyScenario.node[19].appl 	receivedWSMs 	0
scalar MyScenario.node[19].appl 	generatedBSMs 	7
scalar MyScenario.node[19].appl 	receivedBSMs 	212
scalar MyScenario.node[19].appl 	generatedWSAs 	0
scalar MyScenario.node[19].appl 	receivedWSAs 	0
scalar MyScenario.node[19].nic.phy80211p 	busyTime 	0.0035561290322581
scalar MyScenario.node[19].nic.mac1609_4 	ReceivedUnicastPackets 	0
scalar MyScenario.node[19].nic.mac1609_4 	ReceivedBroadcasts 	212
scalar MyScenario.node[19].nic.mac1609_4 	SentPackets 	7
scalar MyScenario.node[19].nic.mac1609_4 	SNIRLostPackets 	0
scalar MyScenario.node[19].nic.mac1609_4 	RXTXLostPackets 	0
scalar MyScenario.node[19].nic.mac1609_4 	TotalLostPackets 	0
scalar MyScenario.node[19].nic.mac1609_4 	DroppedPacketsInMac 	0
scalar MyScenario.node[19].nic.mac1609_4 	TooLittleTime 	0
scalar MyScenario.node[19].nic.mac1609_4 	TimesIntoBackoff 	7
scalar MyScenario.node[19].nic.mac1609_4 	SlotsBackoff 	9
scalar MyScenario.node[19].nic.mac1609_4 	NumInternalContention 	0
scalar MyScenario.node[19].nic.mac1609_4 	totalBusyTime 	0.022783
scalar MyScenario.node[19].veinsmobility 	startTime 	25200
scalar MyScenario.node[19].veinsmobility 	totalTime 	6.1
scalar MyScenario.node[19].veinsmobility 	stopTime 	25206.2
scalar MyScenario.node[19].veinsmobility 	minSpeed 	35.133779244884
scalar MyScenario.node[19].veinsmobility 	maxSpeed 	35.260584144722
scalar MyScenario.node[19].veinsmobility 	totalDistance 	214.43128731572
scalar MyScenario.node[19].veinsmobility 	totalCO2Emission 	40.794400654153
scalar MyScenario.node[15].appl 	generatedWSMs 	0
scalar MyScenario.node[15].appl 	receivedWSMs 	0
scalar MyScenario.node[15].appl 	generatedBSMs 	7
scalar MyScenario.node[15].appl 	receivedBSMs 	236
scalar MyScenario.node[15].appl 	generatedWSAs 	0
scalar MyScenario.node[15].appl 	receivedWSAs 	0
scalar MyScenario.node[15].nic.phy80211p 	busyTime 	0.003776
scalar MyScenario.node[15].nic.mac1609_4 	ReceivedUnicastPackets 	0
scalar MyScenario.node[15].nic.mac1609_4 	ReceivedBroadcasts 	236
scalar MyScenario.node[15].nic.mac1609_4 	SentPackets 	7
scalar MyScenario.node[15].nic.mac1609_4 	SNIRLostPackets 	0
scalar MyScenario.node[15].nic.mac1609_4 	RXTXLostPackets 	0
scalar MyScenario.node[15].nic.mac1609_4 	TotalLostPackets 	0
scalar MyScenario.node[15].nic.mac1609_4 	DroppedPacketsInMac 	0
scalar MyScenario.node[15].nic.mac1609_4 	TooLittleTime 	0
scalar MyScenario.node[15].nic.mac1609_4 	TimesIntoBackoff 	7
scalar MyScenario.node[15].nic.mac1609_4 	SlotsBackoff 	6
scalar MyScenario.node[15].nic.mac1609_4 	NumInternalContention 	0
scalar MyScenario.node[15].nic.mac1609_4 	totalBusyTime 	0.025279
scalar MyScenario.node[15].veinsmobility 	startTime 	25200
scalar MyScenario.node[15].veinsmobility 	totalTime 	6.4
scalar MyScenario.node[15].veinsmobility 	stopTime 	25206.5
scalar MyScenario.node[15].veinsmobility 	minSpeed 	29.822546930841
scalar MyScenario.node[15].veinsmobility 	maxSpeed 	30.044224221166
scalar MyScenario.node[15].veinsmobility 	totalDistance 	191.84223489531
scalar MyScenario.node[15].veinsmobility 	totalCO2Emission 	33.302765364937
scalar MyScenario.node[170].appl 	generatedWSMs 	0
scalar MyScenario.node[170].appl 	receivedWSMs 	0
scalar MyScenario.node[170].appl 	generatedBSMs 	7
scalar MyScenario.node[170].appl 	receivedBSMs 	225
scalar MyScenario.node[170].appl 	generatedWSAs 	0
scalar MyScenario.node[170].appl 	receivedWSAs 	0
scalar MyScenario.node[170].nic.phy80211p 	busyTime 	0.0034925373134328
scalar MyScenario.node[170].nic.mac1609_4 	ReceivedUnicastPackets 	0
scalar MyScenario.node[170].nic.mac1609_4 	ReceivedBroadcasts 	225
scalar MyScenario.node[170].nic.mac1609_4 	SentPackets 	7
scalar MyScenario.node[170].nic.mac1609_4 	SNIRLostPackets 	0
scalar MyScenario.node[170].nic.mac1609_4 	RXTXLostPackets 	0
scalar MyScenario.node[170].nic.mac1609_4 	TotalLostPackets 	0
scalar MyScenario.node[170].nic.mac1609_4 	DroppedPacketsInMac 	0
scalar MyScenario.node[170].nic.mac1609_4 	TooLittleTime 	0
scalar MyScenario.node[170].nic.mac1609_4 	TimesIntoBackoff 	7
scalar MyScenario.node[170].nic.mac1609_4 	SlotsBackoff 	11
scalar MyScenario.node[170].nic.mac1609_4 	NumInternalContention 	0
scalar MyScenario.node[170].nic.mac1609_4 	totalBusyTime 	0.024135
scalar MyScenario.node[170].veinsmobility 	startTime 	25200
scalar MyScenario.node[170].veinsmobility 	totalTime 	6.6
scalar MyScenario.node[170].veinsmobility 	stopTime 	25206.7
scalar MyScenario.node[170].veinsmobility 	minSpeed 	0
scalar MyScenario.node[170].veinsmobility 	maxSpeed 	9.2232071066093
scalar MyScenario.node[170].veinsmobility 	totalDistance 	26.562837121981
scalar MyScenario.node[170].veinsmobility 	totalCO2Emission 	20.454531744937
scalar MyScenario.node[1].appl 	generatedWSMs 	0
scalar MyScenario.node[1].appl 	receivedWSMs 	0
scalar MyScenario.node[1].appl 	generatedBSMs 	7
scalar MyScenario.node[1].appl 	receivedBSMs 	168
scalar MyScenario.node[1].appl 	generatedWSAs 	0
scalar MyScenario.node[1].appl 	receivedWSAs 	0
scalar MyScenario.node[1].nic.phy80211p 	busyTime 	0.0023934246575342
scalar MyScenario.node[1].nic.mac1609_4 	ReceivedUnicastPackets 	0
scalar MyScenario.node[1].nic.mac1609_4 	ReceivedBroadcasts 	168
scalar MyScenario.node[1].nic.mac1609_4 	SentPackets 	7
scalar MyScenario.node[1].nic.mac1609_4 	SNIRLostPackets 	0
scalar MyScenario.node[1].nic.mac1609_4 	RXTXLostPackets 	0
scalar MyScenario.node[1].nic.mac1609_4 	TotalLostPackets 	0
scalar MyScenario.node[1].nic.mac1609_4 	DroppedPacketsInMac 	0
scalar MyScenario.node[1].nic.mac1609_4 	TooLittleTime 	0
scalar MyScenario.node[1].nic.mac1609_4 	TimesIntoBackoff 	7
scalar MyScenario.node[1].nic.mac1609_4 	SlotsBackoff 	17
scalar MyScenario.node[1].nic.mac1609_4 	NumInternalContention 	0
scalar MyScenario.node[1].nic.mac1609_4 	totalBusyTime 	0.018207
scalar MyScenario.node[1].veinsmobility 	startTime 	25200
scalar MyScenario.node[1].veinsmobility 	totalTime 	7.2
scalar MyScenario.node[1].veinsmobility 	stopTime 	25207.3
scalar MyScenario.node[1].veinsmobility 	minSpeed 	29.909860419382
scalar MyScenario.node[1].veinsmobility 	maxSpeed 	30.274662027418
scalar MyScenario.node[1].veinsmobility 	totalDistance 	216.36906505397
scalar MyScenario.node[1].veinsmobility 	totalCO2Emission 	37.565645605607
scalar MyScenario.node[101].appl 	generatedWSMs 	0
scalar MyScenario.node[101].appl 	receivedWSMs 	0
scalar MyScenario.node[101].appl 	generatedBSMs 	8
scalar MyScenario.node[101].appl 	receivedBSMs 	240
scalar MyScenario.node[101].appl 	generatedWSAs 	0
scalar MyScenario.node[101].appl 	receivedWSAs 	0
scalar MyScenario.node[101].nic.phy80211p 	busyTime 	0.003328
scalar MyScenario.node[101].nic.mac1609_4 	ReceivedUnicastPackets 	0
scalar MyScenario.node[101].nic.mac1609_4 	ReceivedBroadcasts 	240
scalar MyScenario.node[101].nic.mac1609_4 	SentPackets 	8
scalar MyScenario.node[101].nic.mac1609_4 	SNIRLostPackets 	0
scalar MyScenario.node[101].nic.mac1609_4 	RXTXLostPackets 	0
scalar MyScenario.node[101].nic.mac1609_4 	TotalLostPackets 	0
scalar MyScenario.node[101].nic.mac1609_4 	DroppedPacketsInMac 	0
scalar MyScenario.node[101].nic.mac1609_4 	TooLittleTime 	0
scalar MyScenario.node[101].nic.mac1609_4 	TimesIntoBackoff 	8
scalar MyScenario.node[101].nic.mac1609_4 	SlotsBackoff 	13
scalar MyScenario.node[101].nic.mac1609_4 	NumInternalContention 	0
scalar MyScenario.node[101].nic.mac1609_4 	totalBusyTime 	0.0258
scalar MyScenario.node[101].veinsmobility 	startTime 	25200
scalar MyScenario.node[101].veinsmobility 	totalTime 	7.4
scalar MyScenario.node[101].veinsmobility 	stopTime 	25207.5
scalar MyScenario.node[101].veinsmobility 	minSpeed 	1.1902995019623
scalar MyScenario.node[101].veinsmobility 	maxSpeed 	12.536473859078
scalar MyScenario.node[101].veinsmobility 	totalDistance 	77.564965623017
scalar MyScenario.node[101].veinsmobility 	totalCO2Emission 	13.920530280001
scalar MyScenario.node[60].appl 	generatedWSMs 	0
scalar MyScenario.node[60].appl 	receivedWSMs 	0
scalar MyScenario.node[60].appl 	generatedBSMs 	8
scalar MyScenario.node[60].appl 	receivedBSMs 	80
scalar MyScenario.node[60].appl 	generatedWSAs 	0
scalar MyScenario.node[60].appl 	receivedWSAs 	0
scalar MyScenario.node[60].nic.phy80211p 	busyTime 	0.0010947368421053
scalar MyScenario.node[60].nic.mac1609_4 	ReceivedUnicastPackets 	0
scalar MyScenario.node[60].nic.mac1609_4 	ReceivedBroadcasts 	80
scalar MyScenario.node[60].nic.mac1609_4 	SentPackets 	8
scalar MyScenario.node[60].nic.mac1609_4 	SNIRLostPackets 	0
scalar MyScenario.node[60].nic.mac1609_4 	RXTXLostPackets 	0
scalar MyScenario.node[60].nic.mac1609_4 	TotalLostPackets 	0
scalar MyScenario.node[60].nic.mac1609_4 	DroppedPacketsInMac 	0
scalar MyScenario.node[60].nic.mac1609_4 	TooLittleTime 	0
scalar MyScenario.node[60].nic.mac1609_4 	TimesIntoBackoff 	8
scalar MyScenario.node[60].nic.mac1609_4 	SlotsBackoff 	7
scalar MyScenario.node[60].nic.mac1609_4 	NumInternalContention 	0
scalar MyScenario.node[60].nic.mac1609_4 	totalBusyTime 	0.00916
scalar MyScenario.node[60].veinsmobility 	startTime 	25200
scalar MyScenario.node[60].veinsmobility 	totalTime 	7.5
scalar MyScenario.node[60].veinsmobility 	stopTime 	25207.6
scalar MyScenario.node[60].veinsmobility 	minSpeed 	0.24846288304497
scalar MyScenario.node[60].veinsmobility 	maxSpeed 	14.242744909396
scalar MyScenario.node[60].veinsmobility 	totalDistance 	57.255905335761
scalar MyScenario.node[60].veinsmobility 	totalCO2Emission 	36.297381437729
scalar MyScenario.node[20].appl 	generatedWSMs 	0
scalar MyScenario.node[20].appl 	receivedWSMs 	0
scalar MyScenario.node[20].appl 	generatedBSMs 	7
scalar MyScenario.node[20].appl 	receivedBSMs 	254
scalar MyScenario.node[20].appl 	generatedWSAs 	0
scalar MyScenario.node[20].appl 	receivedWSAs 	0
scalar MyScenario.node[20].nic.phy80211p 	busyTime 	0.0034306493506493
scalar MyScenario.node[20].nic.mac1609_4 	ReceivedUnicastPackets 	0
scalar MyScenario.node[20].nic.mac1609_4 	ReceivedBroadcasts 	254
scalar MyScenario.node[20].nic.mac1609_4 	SentPackets 	7
scalar MyScenario.node[20].nic.mac1609_4 	SNIRLostPackets 	0
scalar MyScenario.node[20].nic.mac1609_4 	RXTXLostPackets 	0
scalar MyScenario.node[20].nic.mac1609_4 	TotalLostPackets 	0
scalar MyScenario.node[20].nic.mac1609_4 	DroppedPacketsInMac 	0
scalar MyScenario.node[20].nic.mac1609_4 	TooLittleTime 	0
scalar MyScenario.node[20].nic.mac1609_4 	TimesIntoBackoff 	7
scalar MyScenario.node[20].nic.mac1609_4 	SlotsBackoff 	11
scalar MyScenario.node[20].nic.mac1609_4 	NumInternalContention 	0
scalar MyScenario.node[20].nic.mac1609_4 	totalBusyTime 	0.027151
scalar MyScenario.node[20].veinsmobility 	startTime 	25200
scalar MyScenario.node[20].veinsmobility 	totalTime 	7.6
scalar MyScenario.node[20].veinsmobility 	stopTime 	25207.7
scalar MyScenario.node[20].veinsmobility 	minSpeed 	29.783297381009
scalar MyScenario.node[20].veinsmobility 	maxSpeed 	30.084998278212
scalar MyScenario.node[20].veinsmobility 	totalDistance 	227.86845868598
scalar MyScenario.node[20].veinsmobility 	totalCO2Emission 	45.085854742585
scalar MyScenario.node[2].appl 	generatedWSMs 	0
scalar MyScenario.node[2].appl 	receivedWSMs 	0
scalar MyScenario.node[2].appl 	generatedBSMs 	9
scalar MyScenario.node[2].appl 	receivedBSMs 	198
scalar MyScenario.node[2].appl 	generatedWSAs 	0
scalar MyScenario.node[2].appl 	receivedWSAs 	0
scalar MyScenario.node[2].nic.phy80211p 	busyTime 	0.0023944186046512
scalar MyScenario.node[2].nic.mac1609_4 	ReceivedUnicastPackets 	0
scalar MyScenario.node[2].nic.mac1609_4 	ReceivedBroadcasts 	198
scalar MyScenario.node[2].nic.mac1609_4 	SentPackets 	9
scalar MyScenario.node[2].nic.mac1609_4 	SNIRLostPackets 	0
scalar MyScenario.node[2].nic.mac1609_4 	RXTXLostPackets 	0
scalar MyScenario.node[2].nic.mac1609_4 	TotalLostPackets 	0
scalar MyScenario.node[2].nic.mac1609_4 	DroppedPacketsInMac 	0
scalar MyScenario.node[2].nic.mac1609_4 	TooLittleTime 	0
scalar MyScenario.node[2].nic.mac1609_4 	TimesIntoBackoff 	9
scalar MyScenario.node[2].nic.mac1609_4 	SlotsBackoff 	12
scalar MyScenario.node[2].nic.mac1609_4 	NumInternalContention 	0
scalar MyScenario.node[2].nic.mac1609_4 	totalBusyTime 	0.021537
scalar MyScenario.node[2].veinsmobility 	startTime 	25200
scalar MyScenario.node[2].veinsmobility 	totalTime 	8.5
scalar MyScenario.node[2].veinsmobility 	stopTime 	25208.6
scalar MyScenario.node[2].veinsmobility 	minSpeed 	29.907192058467
scalar MyScenario.node[2].veinsmobility 	maxSpeed 	30.372694452521
scalar MyScenario.node[2].veinsmobility 	totalDistance 	255.81714822296
scalar MyScenario.node[2].veinsmobility 	totalCO2Emission 	48.581164375565
scalar MyScenario.node[16].appl 	generatedWSMs 	0
scalar MyScenario.node[16].appl 	receivedWSMs 	0
scalar MyScenario.node[16].appl 	generatedBSMs 	9
scalar MyScenario.node[16].appl 	receivedBSMs 	325
scalar MyScenario.node[16].appl 	generatedWSAs 	0
scalar MyScenario.node[16].appl 	receivedWSAs 	0
scalar MyScenario.node[16].nic.phy80211p 	busyTime 	0.0038094382022472
scalar MyScenario.node[16].nic.mac1609_4 	ReceivedUnicastPackets 	0
scalar MyScenario.node[16].nic.mac1609_4 	ReceivedBroadcasts 	325
scalar MyScenario.node[16].nic.mac1609_4 	SentPackets 	9
scalar MyScenario.node[16].nic.mac1609_4 	SNIRLostPackets 	1
scalar MyScenario.node[16].nic.mac1609_4 	RXTXLostPackets 	0
scalar MyScenario.node[16].nic.mac1609_4 	TotalLostPackets 	1
scalar MyScenario.node[16].nic.mac1609_4 	DroppedPacketsInMac 	0
scalar MyScenario.node[16].nic.mac1609_4 	TooLittleTime 	0
scalar MyScenario.node[16].nic.mac1609_4 	TimesIntoBackoff 	9
scalar MyScenario.node[16].nic.mac1609_4 	SlotsBackoff 	13
scalar MyScenario.node[16].nic.mac1609_4 	NumInternalContention 	0
scalar MyScenario.node[16].nic.mac1609_4 	totalBusyTime 	0.034849
scalar MyScenario.node[16].veinsmobility 	startTime 	25200
scalar MyScenario.node[16].veinsmobility 	totalTime 	8.8
scalar MyScenario.node[16].veinsmobility 	stopTime 	25208.9
scalar MyScenario.node[16].veinsmobility 	minSpeed 	29.29633397668
scalar MyScenario.node[16].veinsmobility 	maxSpeed 	30.086795705597
scalar MyScenario.node[16].veinsmobility 	totalDistance 	263.62596339183
scalar MyScenario.node[16].veinsmobility 	totalCO2Emission 	48.185742422458
scalar MyScenario.node[28].appl 	generatedWSMs 	0
scalar MyScenario.node[28].appl 	receivedWSMs 	0
scalar MyScenario.node[28].appl 	generatedBSMs 	9
scalar MyScenario.node[28].appl 	receivedBSMs 	100
scalar MyScenario.node[28].appl 	generatedWSAs 	0
scalar MyScenario.node[28].appl 	receivedWSAs 	0
scalar MyScenario.node[28].nic.phy80211p 	busyTime 	0.0011428571428571
scalar MyScenario.node[28].nic.mac1609_4 	ReceivedUnicastPackets 	0
scalar MyScenario.node[28].nic.mac1609_4 	ReceivedBroadcasts 	100
scalar MyScenario.node[28].nic.mac1609_4 	SentPackets 	9
scalar MyScenario.node[28].nic.mac1609_4 	SNIRLostPackets 	0
scalar MyScenario.node[28].nic.mac1609_4 	RXTXLostPackets 	0
scalar MyScenario.node[28].nic.mac1609_4 	TotalLostPackets 	0
scalar MyScenario.node[28].nic.mac1609_4 	DroppedPacketsInMac 	0
scalar MyScenario.node[28].nic.mac1609_4 	TooLittleTime 	0
scalar MyScenario.node[28].nic.mac1609_4 	TimesIntoBackoff 	9
scalar MyScenario.node[28].nic.mac1609_4 	SlotsBackoff 	13
scalar MyScenario.node[28].nic.mac1609_4 	NumInternalContention 	0
scalar MyScenario.node[28].nic.mac1609_4 	totalBusyTime 	0.011345
scalar MyScenario.node[28].veinsmobility 	startTime 	25200
scalar MyScenario.node[28].veinsmobility 	totalTime 	9
scalar MyScenario.node[28].veinsmobility 	stopTime 	25209.1
scalar MyScenario.node[28].veinsmobility 	minSpeed 	1.4727604715458
scalar MyScenario.node[28].veinsmobility 	maxSpeed 	13.637235808509
scalar MyScenario.node[28].veinsmobility 	totalDistance 	85.941389692625
scalar MyScenario.node[28].veinsmobility 	totalCO2Emission 	38.536042798796
scalar MyScenario.node[32].appl 	generatedWSMs 	0
scalar MyScenario.node[32].appl 	receivedWSMs 	0
scalar MyScenario.node[32].appl 	generatedBSMs 	9
scalar MyScenario.node[32].appl 	receivedBSMs 	313
scalar MyScenario.node[32].appl 	generatedWSAs 	0
scalar MyScenario.node[32].appl 	receivedWSAs 	0
scalar MyScenario.node[32].nic.phy80211p 	busyTime 	0.0035885714285714
scalar MyScenario.node[32].nic.mac1609_4 	ReceivedUnicastPackets 	0
scalar MyScenario.node[32].nic.mac1609_4 	ReceivedBroadcasts 	313
scalar MyScenario.node[32].nic.mac1609_4 	SentPackets 	9
scalar MyScenario.node[32].nic.mac1609_4 	SNIRLostPackets 	1
scalar MyScenario.node[32].nic.mac1609_4 	RXTXLostPackets 	0
scalar MyScenario.node[32].nic.mac1609_4 	TotalLostPackets 	1
scalar MyScenario.node[32].nic.mac1609_4 	DroppedPacketsInMac 	0
scalar MyScenario.node[32].nic.mac1609_4 	TooLittleTime 	0
scalar MyScenario.node[32].nic.mac1609_4 	TimesIntoBackoff 	9
scalar MyScenario.node[32].nic.mac1609_4 	SlotsBackoff 	14
scalar MyScenario.node[32].nic.mac1609_4 	NumInternalContention 	0
scalar MyScenario.node[32].nic.mac1609_4 	totalBusyTime 	0.033601
scalar MyScenario.node[32].veinsmobility 	startTime 	25200
scalar MyScenario.node[32].veinsmobility 	totalTime 	9
scalar MyScenario.node[32].veinsmobility 	stopTime 	25209.1
scalar MyScenario.node[32].veinsmobility 	minSpeed 	30.025993324017
scalar MyScenario.node[32].veinsmobility 	maxSpeed 	34.650956259706
scalar MyScenario.node[32].veinsmobility 	totalDistance 	304.08026071326
scalar MyScenario.node[32].veinsmobility 	totalCO2Emission 	91.864120060519
scalar MyScenario.node[211].appl 	generatedWSMs 	0
scalar MyScenario.node[211].appl 	receivedWSMs 	0
scalar MyScenario.node[211].appl 	generatedBSMs 	10
scalar MyScenario.node[211].appl 	receivedBSMs 	197
scalar MyScenario.node[211].appl 	generatedWSAs 	0
scalar MyScenario.node[211].appl 	receivedWSAs 	0
scalar MyScenario.node[211].nic.phy80211p 	busyTime 	0.0021795744680851
scalar MyScenario.node[211].nic.mac1609_4 	ReceivedUnicastPackets 	0
scalar MyScenario.node[211].nic.mac1609_4 	ReceivedBroadcasts 	197
scalar MyScenario.node[211].nic.mac1609_4 	SentPackets 	10
scalar MyScenario.node[211].nic.mac1609_4 	SNIRLostPackets 	0
scalar MyScenario.node[211].nic.mac1609_4 	RXTXLostPackets 	0
scalar MyScenario.node[211].nic.mac1609_4 	TotalLostPackets 	0
scalar MyScenario.node[211].nic.mac1609_4 	DroppedPacketsInMac 	0
scalar MyScenario.node[211].nic.mac1609_4 	TooLittleTime 	0
scalar MyScenario.node[211].nic.mac1609_4 	TimesIntoBackoff 	10
scalar MyScenario.node[211].nic.mac1609_4 	SlotsBackoff 	18
scalar MyScenario.node[211].nic.mac1609_4 	NumInternalContention 	0
scalar MyScenario.node[211].nic.mac1609_4 	totalBusyTime 	0.021538
scalar MyScenario.node[211].veinsmobility 	startTime 	25200
scalar MyScenario.node[211].veinsmobility 	totalTime 	9.3
scalar MyScenario.node[211].veinsmobility 	stopTime 	25209.4
scalar MyScenario.node[211].veinsmobility 	minSpeed 	0.27621515924209
scalar MyScenario.node[211].veinsmobility 	maxSpeed 	14.142210096986
scalar MyScenario.node[211].veinsmobility 	totalDistance 	68.879270036718
scalar MyScenario.node[211].veinsmobility 	totalCO2Emission 	36.997380404903
scalar MyScenario.node[112].appl 	generatedWSMs 	0
scalar MyScenario.node[112].appl 	receivedWSMs 	0
scalar MyScenario.node[112].appl 	generatedBSMs 	9
scalar MyScenario.node[112].appl 	receivedBSMs 	129
scalar MyScenario.node[112].appl 	generatedWSAs 	0
scalar MyScenario.node[112].appl 	receivedWSAs 	0
scalar MyScenario.node[112].nic.phy80211p 	busyTime 	0.0014122105263158
scalar MyScenario.node[112].nic.mac1609_4 	ReceivedUnicastPackets 	0
scalar MyScenario.node[112].nic.mac1609_4 	ReceivedBroadcasts 	129
scalar MyScenario.node[112].nic.mac1609_4 	SentPackets 	9
scalar MyScenario.node[112].nic.mac1609_4 	SNIRLostPackets 	0
scalar MyScenario.node[112].nic.mac1609_4 	RXTXLostPackets 	0
scalar MyScenario.node[112].nic.mac1609_4 	TotalLostPackets 	0
scalar MyScenario.node[112].nic.mac1609_4 	DroppedPacketsInMac 	0
scalar MyScenario.node[112].nic.mac1609_4 	TooLittleTime 	0
scalar MyScenario.node[112].nic.mac1609_4 	TimesIntoBackoff 	9
scalar MyScenario.node[112].nic.mac1609_4 	SlotsBackoff 	8
scalar MyScenario.node[112].nic.mac1609_4 	NumInternalContention 	0
scalar MyScenario.node[112].nic.mac1609_4 	totalBusyTime 	0.014361
scalar MyScenario.node[112].veinsmobility 	startTime 	25200
scalar MyScenario.node[112].veinsmobility 	totalTime 	9.4
scalar MyScenario.node[112].veinsmobility 	stopTime 	25209.5
scalar MyScenario.node[112].veinsmobility 	minSpeed 	0.25327048722357
scalar MyScenario.node[112].veinsmobility 	maxSpeed 	13.360089466317
scalar MyScenario.node[112].veinsmobility 	totalDistance 	82.590842726671
scalar MyScenario.node[112].veinsmobility 	totalCO2Emission 	38.211792980981
scalar MyScenario.node[5].appl 	generatedWSMs 	0
scalar MyScenario.node[5].appl 	receivedWSMs 	0
scalar MyScenario.node[5].appl 	generatedBSMs 	10
scalar MyScenario.node[5].appl 	receivedBSMs 	236
scalar MyScenario.node[5].appl 	generatedWSAs 	0
scalar MyScenario.node[5].appl 	receivedWSAs 	0
scalar MyScenario.node[5].nic.phy80211p 	busyTime 	0.0025044897959184
scalar MyScenario.node[5].nic.mac1609_4 	ReceivedUnicastPackets 	0
scalar MyScenario.node[5].nic.mac1609_4 	ReceivedBroadcasts 	236
scalar MyScenario.node[5].nic.mac1609_4 	SentPackets 	10
scalar MyScenario.node[5].nic.mac1609_4 	SNIRLostPackets 	0
scalar MyScenario.node[5].nic.mac1609_4 	RXTXLostPackets 	0
scalar MyScenario.node[5].nic.mac1609_4 	TotalLostPackets 	0
scalar MyScenario.node[5].nic.mac1609_4 	DroppedPacketsInMac 	0
scalar MyScenario.node[5].nic.mac1609_4 	TooLittleTime 	0
scalar MyScenario.node[5].nic.mac1609_4 	TimesIntoBackoff 	10
scalar MyScenario.node[5].nic.mac1609_4 	SlotsBackoff 	17
scalar MyScenario.node[5].nic.mac1609_4 	NumInternalContention 	0
scalar MyScenario.node[5].nic.mac1609_4 	totalBusyTime 	0.025594
scalar MyScenario.node[5].veinsmobility 	startTime 	25200
scalar MyScenario.node[5].veinsmobility 	totalTime 	9.7
scalar MyScenario.node[5].veinsmobility 	stopTime 	25209.8
scalar MyScenario.node[5].veinsmobility 	minSpeed 	29.989082768742
scalar MyScenario.node[5].veinsmobility 	maxSpeed 	30.58342204829
scalar MyScenario.node[5].veinsmobility 	totalDistance 	293.57710075593
scalar MyScenario.node[5].veinsmobility 	totalCO2Emission 	54.62862581375
scalar MyScenario.node[18].appl 	generatedWSMs 	0
scalar MyScenario.node[18].appl 	receivedWSMs 	0
scalar MyScenario.node[18].appl 	generatedBSMs 	10
scalar MyScenario.node[18].appl 	receivedBSMs 	358
scalar MyScenario.node[18].appl 	generatedWSAs 	0
scalar MyScenario.node[18].appl 	receivedWSAs 	0
scalar MyScenario.node[18].nic.phy80211p 	busyTime 	0.0036501960784314
scalar MyScenario.node[18].nic.mac1609_4 	ReceivedUnicastPackets 	0
scalar MyScenario.node[18].nic.mac1609_4 	ReceivedBroadcasts 	358
scalar MyScenario.node[18].nic.mac1609_4 	SentPackets 	10
scalar MyScenario.node[18].nic.mac1609_4 	SNIRLostPackets 	0
scalar MyScenario.node[18].nic.mac1609_4 	RXTXLostPackets 	0
scalar MyScenario.node[18].nic.mac1609_4 	TotalLostPackets 	0
scalar MyScenario.node[18].nic.mac1609_4 	DroppedPacketsInMac 	0
scalar MyScenario.node[18].nic.mac1609_4 	TooLittleTime 	0
scalar MyScenario.node[18].nic.mac1609_4 	TimesIntoBackoff 	10
scalar MyScenario.node[18].nic.mac1609_4 	SlotsBackoff 	17
scalar MyScenario.node[18].nic.mac1609_4 	NumInternalContention 	0
scalar MyScenario.node[18].nic.mac1609_4 	totalBusyTime 	0.038282
scalar MyScenario.node[18].veinsmobility 	startTime 	25200
scalar MyScenario.node[18].veinsmobility 	totalTime 	10.1
scalar MyScenario.node[18].veinsmobility 	stopTime 	25210.2
scalar MyScenario.node[18].veinsmobility 	minSpeed 	30.235610143546
scalar MyScenario.node[18].veinsmobility 	maxSpeed 	35.561568511575
scalar MyScenario.node[18].veinsmobility 	totalDistance 	338.74475439812
scalar MyScenario.node[18].veinsmobility 	totalCO2Emission 	107.37755766961
scalar MyScenario.node[179].appl 	generatedWSMs 	0
scalar MyScenario.node[179].appl 	receivedWSMs 	0
scalar MyScenario.node[179].appl 	generatedBSMs 	11
scalar MyScenario.node[179].appl 	receivedBSMs 	154
scalar MyScenario.node[179].appl 	generatedWSAs 	0
scalar MyScenario.node[179].appl 	receivedWSAs 	0
scalar MyScenario.node[179].nic.phy80211p 	busyTime 	0.0015549514563107
scalar MyScenario.node[179].nic.mac1609_4 	ReceivedUnicastPackets 	0
scalar MyScenario.node[179].nic.mac1609_4 	ReceivedBroadcasts 	154
scalar MyScenario.node[179].nic.mac1609_4 	SentPackets 	11
scalar MyScenario.node[179].nic.mac1609_4 	SNIRLostPackets 	0
scalar MyScenario.node[179].nic.mac1609_4 	RXTXLostPackets 	0
scalar MyScenario.node[179].nic.mac1609_4 	TotalLostPackets 	0
scalar MyScenario.node[179].nic.mac1609_4 	DroppedPacketsInMac 	0
scalar MyScenario.node[179].nic.mac1609_4 	TooLittleTime 	0
scalar MyScenario.node[179].nic.mac1609_4 	TimesIntoBackoff 	11
scalar MyScenario.node[179].nic.mac1609_4 	SlotsBackoff 	20
scalar MyScenario.node[179].nic.mac1609_4 	NumInternalContention 	0
scalar MyScenario.node[179].nic.mac1609_4 	totalBusyTime 	0.017171
scalar MyScenario.node[179].veinsmobility 	startTime 	25200
scalar MyScenario.node[179].veinsmobility 	totalTime 	10.2
scalar MyScenario.node[179].veinsmobility 	stopTime 	25210.3
scalar MyScenario.node[179].veinsmobility 	minSpeed 	0.28735172934485
scalar MyScenario.node[179].veinsmobility 	maxSpeed 	14.121131280848
scalar MyScenario.node[179].veinsmobility 	totalDistance 	102.12408402382
scalar MyScenario.node[179].veinsmobility 	totalCO2Emission 	42.955665111362
scalar MyScenario.node[118].appl 	generatedWSMs 	0
scalar MyScenario.node[118].appl 	receivedWSMs 	0
scalar MyScenario.node[118].appl 	generatedBSMs 	11
scalar MyScenario.node[118].appl 	receivedBSMs 	142
scalar MyScenario.node[118].appl 	generatedWSAs 	0
scalar MyScenario.node[118].appl 	receivedWSAs 	0
scalar MyScenario.node[118].nic.phy80211p 	busyTime 	0.0013674074074074
scalar MyScenario.node[118].nic.mac1609_4 	ReceivedUnicastPackets 	0
scalar MyScenario.node[118].nic.mac1609_4 	ReceivedBroadcasts 	142
scalar MyScenario.node[118].nic.mac1609_4 	SentPackets 	11
scalar MyScenario.node[118].nic.mac1609_4 	SNIRLostPackets 	0
scalar MyScenario.node[118].nic.mac1609_4 	RXTXLostPackets 	0
scalar MyScenario.node[118].nic.mac1609_4 	TotalLostPackets 	0
scalar MyScenario.node[118].nic.mac1609_4 	DroppedPacketsInMac 	0
scalar MyScenario.node[118].nic.mac1609_4 	TooLittleTime 	0
scalar MyScenario.node[118].nic.mac1609_4 	TimesIntoBackoff 	11
scalar MyScenario.node[118].nic.mac1609_4 	SlotsBackoff 	14
scalar MyScenario.node[118].nic.mac1609_4 	NumInternalContention 	0
scalar MyScenario.node[118].nic.mac1609_4 	totalBusyTime 	0.015923
scalar MyScenario.node[118].veinsmobility 	startTime 	25200
scalar MyScenario.node[118].veinsmobility 	totalTime 	10.7
scalar MyScenario.node[118].veinsmobility 	stopTime 	25210.8
scalar MyScenario.node[118].veinsmobility 	minSpeed 	4.6632120397491e-14
scalar MyScenario.node[118].veinsmobility 	maxSpeed 	12.939972951083
scalar MyScenario.node[118].veinsmobility 	totalDistance 	87.93237139281
scalar MyScenario.node[118].veinsmobility 	totalCO2Emission 	37.719634345541
scalar MyScenario.node[135].appl 	generatedWSMs 	0
scalar MyScenario.node[135].appl 	receivedWSMs 	0
scalar MyScenario.node[135].appl 	generatedBSMs 	12
scalar MyScenario.node[135].appl 	receivedBSMs 	63
scalar MyScenario.node[135].appl 	generatedWSAs 	0
scalar MyScenario.node[135].appl 	receivedWSAs 	0
scalar MyScenario.node[135].nic.phy80211p 	busyTime 	0.00059027027027027
scalar MyScenario.node[135].nic.mac1609_4 	ReceivedUnicastPackets 	0
scalar MyScenario.node[135].nic.mac1609_4 	ReceivedBroadcasts 	63
scalar MyScenario.node[135].nic.mac1609_4 	SentPackets 	12
scalar MyScenario.node[135].nic.mac1609_4 	SNIRLostPackets 	0
scalar MyScenario.node[135].nic.mac1609_4 	RXTXLostPackets 	0
scalar MyScenario.node[135].nic.mac1609_4 	TotalLostPackets 	0
scalar MyScenario.node[135].nic.mac1609_4 	DroppedPacketsInMac 	0
scalar MyScenario.node[135].nic.mac1609_4 	TooLittleTime 	0
scalar MyScenario.node[135].nic.mac1609_4 	TimesIntoBackoff 	12
scalar MyScenario.node[135].nic.mac1609_4 	SlotsBackoff 	17
scalar MyScenario.node[135].nic.mac1609_4 	NumInternalContention 	0
scalar MyScenario.node[135].nic.mac1609_4 	totalBusyTime 	0.007812
scalar MyScenario.node[135].veinsmobility 	startTime 	25200
scalar MyScenario.node[135].veinsmobility 	totalTime 	11
scalar MyScenario.node[135].veinsmobility 	stopTime 	25211.1
scalar MyScenario.node[135].veinsmobility 	minSpeed 	1.5587064044213
scalar MyScenario.node[135].veinsmobility 	maxSpeed 	15.7504699364
scalar MyScenario.node[135].veinsmobility 	totalDistance 	150.09442375265
scalar MyScenario.node[135].veinsmobility 	totalCO2Emission 	23.352644548626
scalar MyScenario.node[21].appl 	generatedWSMs 	0
scalar MyScenario.node[21].appl 	receivedWSMs 	0
scalar MyScenario.node[21].appl 	generatedBSMs 	12
scalar MyScenario.node[21].appl 	receivedBSMs 	369
scalar MyScenario.node[21].appl 	generatedWSAs 	0
scalar MyScenario.node[21].appl 	receivedWSAs 	0
scalar MyScenario.node[21].nic.phy80211p 	busyTime 	0.0033961061946903
scalar MyScenario.node[21].nic.mac1609_4 	ReceivedUnicastPackets 	0
scalar MyScenario.node[21].nic.mac1609_4 	ReceivedBroadcasts 	369
scalar MyScenario.node[21].nic.mac1609_4 	SentPackets 	12
scalar MyScenario.node[21].nic.mac1609_4 	SNIRLostPackets 	0
scalar MyScenario.node[21].nic.mac1609_4 	RXTXLostPackets 	0
scalar MyScenario.node[21].nic.mac1609_4 	TotalLostPackets 	0
scalar MyScenario.node[21].nic.mac1609_4 	DroppedPacketsInMac 	0
scalar MyScenario.node[21].nic.mac1609_4 	TooLittleTime 	0
scalar MyScenario.node[21].nic.mac1609_4 	TimesIntoBackoff 	12
scalar MyScenario.node[21].nic.mac1609_4 	SlotsBackoff 	19
scalar MyScenario.node[21].nic.mac1609_4 	NumInternalContention 	0
scalar MyScenario.node[21].nic.mac1609_4 	totalBusyTime 	0.039636
scalar MyScenario.node[21].veinsmobility 	startTime 	25200
scalar MyScenario.node[21].veinsmobility 	totalTime 	11.2
scalar MyScenario.node[21].veinsmobility 	stopTime 	25211.3
scalar MyScenario.node[21].veinsmobility 	minSpeed 	29.886884177908
scalar MyScenario.node[21].veinsmobility 	maxSpeed 	29.998782248632
scalar MyScenario.node[21].veinsmobility 	totalDistance 	335.75257696151
scalar MyScenario.node[21].veinsmobility 	totalCO2Emission 	56.761286235722
scalar MyScenario.node[187].appl 	generatedWSMs 	0
scalar MyScenario.node[187].appl 	receivedWSMs 	0
scalar MyScenario.node[187].appl 	generatedBSMs 	12
scalar MyScenario.node[187].appl 	receivedBSMs 	171
scalar MyScenario.node[187].appl 	generatedWSAs 	0
scalar MyScenario.node[187].appl 	receivedWSAs 	0
scalar MyScenario.node[187].nic.phy80211p 	busyTime 	0.0015738053097345
scalar MyScenario.node[187].nic.mac1609_4 	ReceivedUnicastPackets 	0
scalar MyScenario.node[187].nic.mac1609_4 	ReceivedBroadcasts 	171
scalar MyScenario.node[187].nic.mac1609_4 	SentPackets 	12
scalar MyScenario.node[187].nic.mac1609_4 	SNIRLostPackets 	0
scalar MyScenario.node[187].nic.mac1609_4 	RXTXLostPackets 	0
scalar MyScenario.node[187].nic.mac1609_4 	TotalLostPackets 	0
scalar MyScenario.node[187].nic.mac1609_4 	DroppedPacketsInMac 	0
scalar MyScenario.node[187].nic.mac1609_4 	TooLittleTime 	0
scalar MyScenario.node[187].nic.mac1609_4 	TimesIntoBackoff 	12
scalar MyScenario.node[187].nic.mac1609_4 	SlotsBackoff 	15
scalar MyScenario.node[187].nic.mac1609_4 	NumInternalContention 	0
scalar MyScenario.node[187].nic.mac1609_4 	totalBusyTime 	0.019044
scalar MyScenario.node[187].veinsmobility 	startTime 	25200
scalar MyScenario.node[187].veinsmobility 	totalTime 	11.2
scalar MyScenario.node[187].veinsmobility 	stopTime 	25211.3
scalar MyScenario.node[187].veinsmobility 	minSpeed 	0.2590548156789
scalar MyScenario.node[187].veinsmobility 	maxSpeed 	13.696027711457
scalar MyScenario.node[187].veinsmobility 	totalDistance 	104.95335181022
scalar MyScenario.node[187].veinsmobility 	totalCO2Emission 	45.980940530371
scalar MyScenario.node[113].appl 	generatedWSMs 	0
scalar MyScenario.node[113].appl 	receivedWSMs 	0
scalar MyScenario.node[113].appl 	generatedBSMs 	11
scalar MyScenario.node[113].appl 	receivedBSMs 	408
scalar MyScenario.node[113].appl 	generatedWSAs 	0
scalar MyScenario.node[113].appl 	receivedWSAs 	0
scalar MyScenario.node[113].nic.phy80211p 	busyTime 	0.0036897391304348
scalar MyScenario.node[113].nic.mac1609_4 	ReceivedUnicastPackets 	0
scalar MyScenario.node[113].nic.mac1609_4 	ReceivedBroadcasts 	408
scalar MyScenario.node[113].nic.mac1609_4 	SentPackets 	11
scalar MyScenario.node[113].nic.mac1609_4 	SNIRLostPackets 	0
scalar MyScenario.node[113].nic.mac1609_4 	RXTXLostPackets 	0
scalar MyScenario.node[113].nic.mac1609_4 	TotalLostPackets 	0
scalar MyScenario.node[113].nic.mac1609_4 	DroppedPacketsInMac 	0
scalar MyScenario.node[113].nic.mac1609_4 	TooLittleTime 	0
scalar MyScenario.node[113].nic.mac1609_4 	TimesIntoBackoff 	11
scalar MyScenario.node[113].nic.mac1609_4 	SlotsBackoff 	20
scalar MyScenario.node[113].nic.mac1609_4 	NumInternalContention 	0
scalar MyScenario.node[113].nic.mac1609_4 	totalBusyTime 	0.043587
scalar MyScenario.node[113].veinsmobility 	startTime 	25200
scalar MyScenario.node[113].veinsmobility 	totalTime 	11.4
scalar MyScenario.node[113].veinsmobility 	stopTime 	25211.5
scalar MyScenario.node[113].veinsmobility 	minSpeed 	31.446013316107
scalar MyScenario.node[113].veinsmobility 	maxSpeed 	36.186961291843
scalar MyScenario.node[113].veinsmobility 	totalDistance 	388.51416350282
scalar MyScenario.node[113].veinsmobility 	totalCO2Emission 	113.52706912654
scalar MyScenario.node[7].appl 	generatedWSMs 	0
scalar MyScenario.node[7].appl 	receivedWSMs 	0
scalar MyScenario.node[7].appl 	generatedBSMs 	11
scalar MyScenario.node[7].appl 	receivedBSMs 	308
scalar MyScenario.node[7].appl 	generatedWSAs 	0
scalar MyScenario.node[7].appl 	receivedWSAs 	0
scalar MyScenario.node[7].nic.phy80211p 	busyTime 	0.0026917647058824
scalar MyScenario.node[7].nic.mac1609_4 	ReceivedUnicastPackets 	0
scalar MyScenario.node[7].nic.mac1609_4 	ReceivedBroadcasts 	308
scalar MyScenario.node[7].nic.mac1609_4 	SentPackets 	11
scalar MyScenario.node[7].nic.mac1609_4 	SNIRLostPackets 	0
scalar MyScenario.node[7].nic.mac1609_4 	RXTXLostPackets 	0
scalar MyScenario.node[7].nic.mac1609_4 	TotalLostPackets 	0
scalar MyScenario.node[7].nic.mac1609_4 	DroppedPacketsInMac 	0
scalar MyScenario.node[7].nic.mac1609_4 	TooLittleTime 	0
scalar MyScenario.node[7].nic.mac1609_4 	TimesIntoBackoff 	11
scalar MyScenario.node[7].nic.mac1609_4 	SlotsBackoff 	15
scalar MyScenario.node[7].nic.mac1609_4 	NumInternalContention 	0
scalar MyScenario.node[7].nic.mac1609_4 	totalBusyTime 	0.033187
scalar MyScenario.node[7].veinsmobility 	startTime 	25200
scalar MyScenario.node[7].veinsmobility 	totalTime 	11.8
scalar MyScenario.node[7].veinsmobility 	stopTime 	25211.9
scalar MyScenario.node[7].veinsmobility 	minSpeed 	33.2546219319
scalar MyScenario.node[7].veinsmobility 	maxSpeed 	38.627114621271
scalar MyScenario.node[7].veinsmobility 	totalDistance 	429.34135818323
scalar MyScenario.node[7].veinsmobility 	totalCO2Emission 	61.54155605774
scalar MyScenario.node[22].appl 	generatedWSMs 	0
scalar MyScenario.node[22].appl 	receivedWSMs 	0
scalar MyScenario.node[22].appl 	generatedBSMs 	13
scalar MyScenario.node[22].appl 	receivedBSMs 	421
scalar MyScenario.node[22].appl 	generatedWSAs 	0
scalar MyScenario.node[22].appl 	receivedWSAs 	0
scalar MyScenario.node[22].nic.phy80211p 	busyTime 	0.0034749206349206
scalar MyScenario.node[22].nic.mac1609_4 	ReceivedUnicastPackets 	0
scalar MyScenario.node[22].nic.mac1609_4 	ReceivedBroadcasts 	421
scalar MyScenario.node[22].nic.mac1609_4 	SentPackets 	13
scalar MyScenario.node[22].nic.mac1609_4 	SNIRLostPackets 	0
scalar MyScenario.node[22].nic.mac1609_4 	RXTXLostPackets 	0
scalar MyScenario.node[22].nic.mac1609_4 	TotalLostPackets 	0
scalar MyScenario.node[22].nic.mac1609_4 	DroppedPacketsInMac 	0
scalar MyScenario.node[22].nic.mac1609_4 	TooLittleTime 	0
scalar MyScenario.node[22].nic.mac1609_4 	TimesIntoBackoff 	13
scalar MyScenario.node[22].nic.mac1609_4 	SlotsBackoff 	17
scalar MyScenario.node[22].nic.mac1609_4 	NumInternalContention 	0
scalar MyScenario.node[22].nic.mac1609_4 	totalBusyTime 	0.045149
scalar MyScenario.node[22].veinsmobility 	startTime 	25200
scalar MyScenario.node[22].veinsmobility 	totalTime 	12.5
scalar MyScenario.node[22].veinsmobility 	stopTime 	25212.6
scalar MyScenario.node[22].veinsmobility 	minSpeed 	29.864021243319
scalar MyScenario.node[22].veinsmobility 	maxSpeed 	30.042805058682
scalar MyScenario.node[22].veinsmobility 	totalDistance 	374.80415648801
scalar MyScenario.node[22].veinsmobility 	totalCO2Emission 	67.01784979871
scalar MyScenario.node[152].appl 	generatedWSMs 	0
scalar MyScenario.node[152].appl 	receivedWSMs 	0
scalar MyScenario.node[152].appl 	generatedBSMs 	13
scalar MyScenario.node[152].appl 	receivedBSMs 	198
scalar MyScenario.node[152].appl 	generatedWSAs 	0
scalar MyScenario.node[152].appl 	receivedWSAs 	0
scalar MyScenario.node[152].nic.phy80211p 	busyTime 	0.0016214173228346
scalar MyScenario.node[152].nic.mac1609_4 	ReceivedUnicastPackets 	0
scalar MyScenario.node[152].nic.mac1609_4 	ReceivedBroadcasts 	198
scalar MyScenario.node[152].nic.mac1609_4 	SentPackets 	13
scalar MyScenario.node[152].nic.mac1609_4 	SNIRLostPackets 	0
scalar MyScenario.node[152].nic.mac1609_4 	RXTXLostPackets 	0
scalar MyScenario.node[152].nic.mac1609_4 	TotalLostPackets 	0
scalar MyScenario.node[152].nic.mac1609_4 	DroppedPacketsInMac 	0
scalar MyScenario.node[152].nic.mac1609_4 	TooLittleTime 	0
scalar MyScenario.node[152].nic.mac1609_4 	TimesIntoBackoff 	13
scalar MyScenario.node[152].nic.mac1609_4 	SlotsBackoff 	16
scalar MyScenario.node[152].nic.mac1609_4 	NumInternalContention 	0
scalar MyScenario.node[152].nic.mac1609_4 	totalBusyTime 	0.021957
scalar MyScenario.node[152].veinsmobility 	startTime 	25200
scalar MyScenario.node[152].veinsmobility 	totalTime 	12.6
scalar MyScenario.node[152].veinsmobility 	stopTime 	25212.7
scalar MyScenario.node[152].veinsmobility 	minSpeed 	4.6633847694354e-14
scalar MyScenario.node[152].veinsmobility 	maxSpeed 	13.885686670243
scalar MyScenario.node[152].veinsmobility 	totalDistance 	113.03047340893
scalar MyScenario.node[152].veinsmobility 	totalCO2Emission 	50.438528789154
scalar MyScenario.node[204].appl 	generatedWSMs 	0
scalar MyScenario.node[204].appl 	receivedWSMs 	0
scalar MyScenario.node[204].appl 	generatedBSMs 	13
scalar MyScenario.node[204].appl 	receivedBSMs 	9
scalar MyScenario.node[204].appl 	generatedWSAs 	0
scalar MyScenario.node[204].appl 	receivedWSAs 	0
scalar MyScenario.node[204].nic.phy80211p 	busyTime 	7.1450381679389e-05
scalar MyScenario.node[204].nic.mac1609_4 	ReceivedUnicastPackets 	0
scalar MyScenario.node[204].nic.mac1609_4 	ReceivedBroadcasts 	9
scalar MyScenario.node[204].nic.mac1609_4 	SentPackets 	13
scalar MyScenario.node[204].nic.mac1609_4 	SNIRLostPackets 	0
scalar MyScenario.node[204].nic.mac1609_4 	RXTXLostPackets 	0
scalar MyScenario.node[204].nic.mac1609_4 	TotalLostPackets 	0
scalar MyScenario.node[204].nic.mac1609_4 	DroppedPacketsInMac 	0
scalar MyScenario.node[204].nic.mac1609_4 	TooLittleTime 	0
scalar MyScenario.node[204].nic.mac1609_4 	TimesIntoBackoff 	13
scalar MyScenario.node[204].nic.mac1609_4 	SlotsBackoff 	22
scalar MyScenario.node[204].nic.mac1609_4 	NumInternalContention 	0
scalar MyScenario.node[204].nic.mac1609_4 	totalBusyTime 	0.002301
scalar MyScenario.node[204].veinsmobility 	startTime 	25200
scalar MyScenario.node[204].veinsmobility 	totalTime 	13
scalar MyScenario.node[204].veinsmobility 	stopTime 	25213.1
scalar MyScenario.node[204].veinsmobility 	minSpeed 	13.998780870765
scalar MyScenario.node[204].veinsmobility 	maxSpeed 	14.147363810184
scalar MyScenario.node[204].veinsmobility 	totalDistance 	183.16739014891
scalar MyScenario.node[204].veinsmobility 	totalCO2Emission 	31.671529703494
scalar MyScenario.node[114].appl 	generatedWSMs 	0
scalar MyScenario.node[114].appl 	receivedWSMs 	0
scalar MyScenario.node[114].appl 	generatedBSMs 	13
scalar MyScenario.node[114].appl 	receivedBSMs 	103
scalar MyScenario.node[114].appl 	generatedWSAs 	0
scalar MyScenario.node[114].appl 	receivedWSAs 	0
scalar MyScenario.node[114].nic.phy80211p 	busyTime 	0.00081323308270677
scalar MyScenario.node[114].nic.mac1609_4 	ReceivedUnicastPackets 	0
scalar MyScenario.node[114].nic.mac1609_4 	ReceivedBroadcasts 	103
scalar MyScenario.node[114].nic.mac1609_4 	SentPackets 	13
scalar MyScenario.node[114].nic.mac1609_4 	SNIRLostPackets 	1
scalar MyScenario.node[114].nic.mac1609_4 	RXTXLostPackets 	0
scalar MyScenario.node[114].nic.mac1609_4 	TotalLostPackets 	1
scalar MyScenario.node[114].nic.mac1609_4 	DroppedPacketsInMac 	0
scalar MyScenario.node[114].nic.mac1609_4 	TooLittleTime 	0
scalar MyScenario.node[114].nic.mac1609_4 	TimesIntoBackoff 	13
scalar MyScenario.node[114].nic.mac1609_4 	SlotsBackoff 	15
scalar MyScenario.node[114].nic.mac1609_4 	NumInternalContention 	0
scalar MyScenario.node[114].nic.mac1609_4 	totalBusyTime 	0.012181
scalar MyScenario.node[114].veinsmobility 	startTime 	25200
scalar MyScenario.node[114].veinsmobility 	totalTime 	13.2
scalar MyScenario.node[114].veinsmobility 	stopTime 	25213.3
scalar MyScenario.node[114].veinsmobility 	minSpeed 	0
scalar MyScenario.node[114].veinsmobility 	maxSpeed 	14.789572905646
scalar MyScenario.node[114].veinsmobility 	totalDistance 	78.003128783671
scalar MyScenario.node[114].veinsmobility 	totalCO2Emission 	45.93115726223
scalar MyScenario.node[165].appl 	generatedWSMs 	0
scalar MyScenario.node[165].appl 	receivedWSMs 	0
scalar MyScenario.node[165].appl 	generatedBSMs 	13
scalar MyScenario.node[165].appl 	receivedBSMs 	212
scalar MyScenario.node[165].appl 	generatedWSAs 	0
scalar MyScenario.node[165].appl 	receivedWSAs 	0
scalar MyScenario.node[165].nic.phy80211p 	busyTime 	0.0016331851851852
scalar MyScenario.node[165].nic.mac1609_4 	ReceivedUnicastPackets 	0
scalar MyScenario.node[165].nic.mac1609_4 	ReceivedBroadcasts 	212
scalar MyScenario.node[165].nic.mac1609_4 	SentPackets 	13
scalar MyScenario.node[165].nic.mac1609_4 	SNIRLostPackets 	0
scalar MyScenario.node[165].nic.mac1609_4 	RXTXLostPackets 	0
scalar MyScenario.node[165].nic.mac1609_4 	TotalLostPackets 	0
scalar MyScenario.node[165].nic.mac1609_4 	DroppedPacketsInMac 	0
scalar MyScenario.node[165].nic.mac1609_4 	TooLittleTime 	0
scalar MyScenario.node[165].nic.mac1609_4 	TimesIntoBackoff 	13
scalar MyScenario.node[165].nic.mac1609_4 	SlotsBackoff 	22
scalar MyScenario.node[165].nic.mac1609_4 	NumInternalContention 	0
scalar MyScenario.node[165].nic.mac1609_4 	totalBusyTime 	0.023413
scalar MyScenario.node[165].veinsmobility 	startTime 	25200
scalar MyScenario.node[165].veinsmobility 	totalTime 	13.4
scalar MyScenario.node[165].veinsmobility 	stopTime 	25213.5
scalar MyScenario.node[165].veinsmobility 	minSpeed 	4.5474506531005e-14
scalar MyScenario.node[165].veinsmobility 	maxSpeed 	12.946327254426
scalar MyScenario.node[165].veinsmobility 	totalDistance 	108.45104011464
scalar MyScenario.node[165].veinsmobility 	totalCO2Emission 	49.707825156835
scalar MyScenario.node[25].appl 	generatedWSMs 	0
scalar MyScenario.node[25].appl 	receivedWSMs 	0
scalar MyScenario.node[25].appl 	generatedBSMs 	14
scalar MyScenario.node[25].appl 	receivedBSMs 	480
scalar MyScenario.node[25].appl 	generatedWSAs 	0
scalar MyScenario.node[25].appl 	receivedWSAs 	0
scalar MyScenario.node[25].nic.phy80211p 	busyTime 	0.0036173913043478
scalar MyScenario.node[25].nic.mac1609_4 	ReceivedUnicastPackets 	0
scalar MyScenario.node[25].nic.mac1609_4 	ReceivedBroadcasts 	480
scalar MyScenario.node[25].nic.mac1609_4 	SentPackets 	14
scalar MyScenario.node[25].nic.mac1609_4 	SNIRLostPackets 	0
scalar MyScenario.node[25].nic.mac1609_4 	RXTXLostPackets 	0
scalar MyScenario.node[25].nic.mac1609_4 	TotalLostPackets 	0
scalar MyScenario.node[25].nic.mac1609_4 	DroppedPacketsInMac 	0
scalar MyScenario.node[25].nic.mac1609_4 	TooLittleTime 	0
scalar MyScenario.node[25].nic.mac1609_4 	TimesIntoBackoff 	14
scalar MyScenario.node[25].nic.mac1609_4 	SlotsBackoff 	19
scalar MyScenario.node[25].nic.mac1609_4 	NumInternalContention 	0
scalar MyScenario.node[25].nic.mac1609_4 	totalBusyTime 	0.05139
scalar MyScenario.node[25].veinsmobility 	startTime 	25200
scalar MyScenario.node[25].veinsmobility 	totalTime 	13.7
scalar MyScenario.node[25].veinsmobility 	stopTime 	25213.8
scalar MyScenario.node[25].veinsmobility 	minSpeed 	29.845794361062
scalar MyScenario.node[25].veinsmobility 	maxSpeed 	30.088974513158
scalar MyScenario.node[25].veinsmobility 	totalDistance 	410.75105297285
scalar MyScenario.node[25].veinsmobility 	totalCO2Emission 	78.853661241267
scalar MyScenario.node[6].appl 	generatedWSMs 	0
scalar MyScenario.node[6].appl 	receivedWSMs 	0
scalar MyScenario.node[6].appl 	generatedBSMs 	14
scalar MyScenario.node[6].appl 	receivedBSMs 	365
scalar MyScenario.node[6].appl 	generatedWSAs 	0
scalar MyScenario.node[6].appl 	receivedWSAs 	0
scalar MyScenario.node[6].nic.phy80211p 	busyTime 	0.0026618181818182
scalar MyScenario.node[6].nic.mac1609_4 	ReceivedUnicastPackets 	0
scalar MyScenario.node[6].nic.mac1609_4 	ReceivedBroadcasts 	365
scalar MyScenario.node[6].nic.mac1609_4 	SentPackets 	14
scalar MyScenario.node[6].nic.mac1609_4 	SNIRLostPackets 	1
scalar MyScenario.node[6].nic.mac1609_4 	RXTXLostPackets 	0
scalar MyScenario.node[6].nic.mac1609_4 	TotalLostPackets 	1
scalar MyScenario.node[6].nic.mac1609_4 	DroppedPacketsInMac 	0
scalar MyScenario.node[6].nic.mac1609_4 	TooLittleTime 	0
scalar MyScenario.node[6].nic.mac1609_4 	TimesIntoBackoff 	14
scalar MyScenario.node[6].nic.mac1609_4 	SlotsBackoff 	22
scalar MyScenario.node[6].nic.mac1609_4 	NumInternalContention 	0
scalar MyScenario.node[6].nic.mac1609_4 	totalBusyTime 	0.039534
scalar MyScenario.node[6].veinsmobility 	startTime 	25200
scalar MyScenario.node[6].veinsmobility 	totalTime 	14.2
scalar MyScenario.node[6].veinsmobility 	stopTime 	25214.3
scalar MyScenario.node[6].veinsmobility 	minSpeed 	31.85411056149
scalar MyScenario.node[6].veinsmobility 	maxSpeed 	31.98759649815
scalar MyScenario.node[6].veinsmobility 	totalDistance 	452.8160392679
scalar MyScenario.node[6].veinsmobility 	totalCO2Emission 	80.759838856404
scalar MyScenario.node[52].appl 	generatedWSMs 	0
scalar MyScenario.node[52].appl 	receivedWSMs 	0
scalar MyScenario.node[52].appl 	generatedBSMs 	15
scalar MyScenario.node[52].appl 	receivedBSMs 	491
scalar MyScenario.node[52].appl 	generatedWSAs 	0
scalar MyScenario.node[52].appl 	receivedWSAs 	0
scalar MyScenario.node[52].nic.phy80211p 	busyTime 	0.0035046575342466
scalar MyScenario.node[52].nic.mac1609_4 	ReceivedUnicastPackets 	0
scalar MyScenario.node[52].nic.mac1609_4 	ReceivedBroadcasts 	491
scalar MyScenario.node[52].nic.mac1609_4 	SentPackets 	15
scalar MyScenario.node[52].nic.mac1609_4 	SNIRLostPackets 	0
scalar MyScenario.node[52].nic.mac1609_4 	RXTXLostPackets 	0
scalar MyScenario.node[52].nic.mac1609_4 	TotalLostPackets 	0
scalar MyScenario.node[52].nic.mac1609_4 	DroppedPacketsInMac 	0
scalar MyScenario.node[52].nic.mac1609_4 	TooLittleTime 	0
scalar MyScenario.node[52].nic.mac1609_4 	TimesIntoBackoff 	15
scalar MyScenario.node[52].nic.mac1609_4 	SlotsBackoff 	27
scalar MyScenario.node[52].nic.mac1609_4 	NumInternalContention 	0
scalar MyScenario.node[52].nic.mac1609_4 	totalBusyTime 	0.052639
scalar MyScenario.node[52].veinsmobility 	startTime 	25200
scalar MyScenario.node[52].veinsmobility 	totalTime 	14.5
scalar MyScenario.node[52].veinsmobility 	stopTime 	25214.6
scalar MyScenario.node[52].veinsmobility 	minSpeed 	31.835867312104
scalar MyScenario.node[52].veinsmobility 	maxSpeed 	31.969857876807
scalar MyScenario.node[52].veinsmobility 	totalDistance 	463.77753427512
scalar MyScenario.node[52].veinsmobility 	totalCO2Emission 	84.019274788169
scalar MyScenario.node[67].appl 	generatedWSMs 	0
scalar MyScenario.node[67].appl 	receivedWSMs 	0
scalar MyScenario.node[67].appl 	generatedBSMs 	14
scalar MyScenario.node[67].appl 	receivedBSMs 	127
scalar MyScenario.node[67].appl 	generatedWSAs 	0
scalar MyScenario.node[67].appl 	receivedWSAs 	0
scalar MyScenario.node[67].nic.phy80211p 	busyTime 	0.00090465753424657
scalar MyScenario.node[67].nic.mac1609_4 	ReceivedUnicastPackets 	0
scalar MyScenario.node[67].nic.mac1609_4 	ReceivedBroadcasts 	127
scalar MyScenario.node[67].nic.mac1609_4 	SentPackets 	14
scalar MyScenario.node[67].nic.mac1609_4 	SNIRLostPackets 	0
scalar MyScenario.node[67].nic.mac1609_4 	RXTXLostPackets 	0
scalar MyScenario.node[67].nic.mac1609_4 	TotalLostPackets 	0
scalar MyScenario.node[67].nic.mac1609_4 	DroppedPacketsInMac 	0
scalar MyScenario.node[67].nic.mac1609_4 	TooLittleTime 	0
scalar MyScenario.node[67].nic.mac1609_4 	TimesIntoBackoff 	14
scalar MyScenario.node[67].nic.mac1609_4 	SlotsBackoff 	20
scalar MyScenario.node[67].nic.mac1609_4 	NumInternalContention 	0
scalar MyScenario.node[67].nic.mac1609_4 	totalBusyTime 	0.014678
scalar MyScenario.node[67].veinsmobility 	startTime 	25200
scalar MyScenario.node[67].veinsmobility 	totalTime 	14.5
scalar MyScenario.node[67].veinsmobility 	stopTime 	25214.6
scalar MyScenario.node[67].veinsmobility 	minSpeed 	4.5540368060266e-14
scalar MyScenario.node[67].veinsmobility 	maxSpeed 	14.563758797337
scalar MyScenario.node[67].veinsmobility 	totalDistance 	84.314832728487
scalar MyScenario.node[67].veinsmobility 	totalCO2Emission 	47.519251819597
scalar MyScenario.node[14].appl 	generatedWSMs 	0
scalar MyScenario.node[14].appl 	receivedWSMs 	0
scalar MyScenario.node[14].appl 	generatedBSMs 	15
scalar MyScenario.node[14].appl 	receivedBSMs 	525
scalar MyScenario.node[14].appl 	generatedWSAs 	0
scalar MyScenario.node[14].appl 	receivedWSAs 	0
scalar MyScenario.node[14].nic.phy80211p 	busyTime 	0.0036158940397351
scalar MyScenario.node[14].nic.mac1609_4 	ReceivedUnicastPackets 	0
scalar MyScenario.node[14].nic.mac1609_4 	ReceivedBroadcasts 	525
scalar MyScenario.node[14].nic.mac1609_4 	SentPackets 	15
scalar MyScenario.node[14].nic.mac1609_4 	SNIRLostPackets 	0
scalar MyScenario.node[14].nic.mac1609_4 	RXTXLostPackets 	0
scalar MyScenario.node[14].nic.mac1609_4 	TotalLostPackets 	0
scalar MyScenario.node[14].nic.mac1609_4 	DroppedPacketsInMac 	0
scalar MyScenario.node[14].nic.mac1609_4 	TooLittleTime 	0
scalar MyScenario.node[14].nic.mac1609_4 	TimesIntoBackoff 	15
scalar MyScenario.node[14].nic.mac1609_4 	SlotsBackoff 	30
scalar MyScenario.node[14].nic.mac1609_4 	NumInternalContention 	0
scalar MyScenario.node[14].nic.mac1609_4 	totalBusyTime 	0.056175
scalar MyScenario.node[14].veinsmobility 	startTime 	25200
scalar MyScenario.node[14].veinsmobility 	totalTime 	15
scalar MyScenario.node[14].veinsmobility 	stopTime 	25215.1
scalar MyScenario.node[14].veinsmobility 	minSpeed 	30.102896055145
scalar MyScenario.node[14].veinsmobility 	maxSpeed 	30.23064717807
scalar MyScenario.node[14].veinsmobility 	totalDistance 	452.99005459059
scalar MyScenario.node[14].veinsmobility 	totalCO2Emission 	78.840129071887
scalar MyScenario.node[106].appl 	generatedWSMs 	0
scalar MyScenario.node[106].appl 	receivedWSMs 	0
scalar MyScenario.node[106].appl 	generatedBSMs 	15
scalar MyScenario.node[106].appl 	receivedBSMs 	247
scalar MyScenario.node[106].appl 	generatedWSAs 	0
scalar MyScenario.node[106].appl 	receivedWSAs 	0
scalar MyScenario.node[106].nic.phy80211p 	busyTime 	0.0017011920529801
scalar MyScenario.node[106].nic.mac1609_4 	ReceivedUnicastPackets 	0
scalar MyScenario.node[106].nic.mac1609_4 	ReceivedBroadcasts 	247
scalar MyScenario.node[106].nic.mac1609_4 	SentPackets 	15
scalar MyScenario.node[106].nic.mac1609_4 	SNIRLostPackets 	0
scalar MyScenario.node[106].nic.mac1609_4 	RXTXLostPackets 	0
scalar MyScenario.node[106].nic.mac1609_4 	TotalLostPackets 	0
scalar MyScenario.node[106].nic.mac1609_4 	DroppedPacketsInMac 	0
scalar MyScenario.node[106].nic.mac1609_4 	TooLittleTime 	0
scalar MyScenario.node[106].nic.mac1609_4 	TimesIntoBackoff 	15
scalar MyScenario.node[106].nic.mac1609_4 	SlotsBackoff 	26
scalar MyScenario.node[106].nic.mac1609_4 	NumInternalContention 	0
scalar MyScenario.node[106].nic.mac1609_4 	totalBusyTime 	0.027263
scalar MyScenario.node[106].veinsmobility 	startTime 	25200
scalar MyScenario.node[106].veinsmobility 	totalTime 	15
scalar MyScenario.node[106].veinsmobility 	stopTime 	25215.1
scalar MyScenario.node[106].veinsmobility 	minSpeed 	4.6805738073774e-14
scalar MyScenario.node[106].veinsmobility 	maxSpeed 	11.924885646965
scalar MyScenario.node[106].veinsmobility 	totalDistance 	115.16616512248
scalar MyScenario.node[106].veinsmobility 	totalCO2Emission 	48.388680606737
scalar MyScenario.node[124].appl 	generatedWSMs 	0
scalar MyScenario.node[124].appl 	receivedWSMs 	0
scalar MyScenario.node[124].appl 	generatedBSMs 	15
scalar MyScenario.node[124].appl 	receivedBSMs 	293
scalar MyScenario.node[124].appl 	generatedWSAs 	0
scalar MyScenario.node[124].appl 	receivedWSAs 	0
scalar MyScenario.node[124].nic.phy80211p 	busyTime 	0.0020115789473684
scalar MyScenario.node[124].nic.mac1609_4 	ReceivedUnicastPackets 	0
scalar MyScenario.node[124].nic.mac1609_4 	ReceivedBroadcasts 	293
scalar MyScenario.node[124].nic.mac1609_4 	SentPackets 	15
scalar MyScenario.node[124].nic.mac1609_4 	SNIRLostPackets 	1
scalar MyScenario.node[124].nic.mac1609_4 	RXTXLostPackets 	0
scalar MyScenario.node[124].nic.mac1609_4 	TotalLostPackets 	1
scalar MyScenario.node[124].nic.mac1609_4 	DroppedPacketsInMac 	0
scalar MyScenario.node[124].nic.mac1609_4 	TooLittleTime 	0
scalar MyScenario.node[124].nic.mac1609_4 	TimesIntoBackoff 	15
scalar MyScenario.node[124].nic.mac1609_4 	SlotsBackoff 	23
scalar MyScenario.node[124].nic.mac1609_4 	NumInternalContention 	0
scalar MyScenario.node[124].nic.mac1609_4 	totalBusyTime 	0.032151
scalar MyScenario.node[124].veinsmobility 	startTime 	25200
scalar MyScenario.node[124].veinsmobility 	totalTime 	15.1
scalar MyScenario.node[124].veinsmobility 	stopTime 	25215.2
scalar MyScenario.node[124].veinsmobility 	minSpeed 	0.52
scalar MyScenario.node[124].veinsmobility 	maxSpeed 	16.258413617306
scalar MyScenario.node[124].veinsmobility 	totalDistance 	155.7996070962
scalar MyScenario.node[124].veinsmobility 	totalCO2Emission 	57.715528921788
scalar MyScenario.node[8].appl 	generatedWSMs 	0
scalar MyScenario.node[8].appl 	receivedWSMs 	0
scalar MyScenario.node[8].appl 	generatedBSMs 	16
scalar MyScenario.node[8].appl 	receivedBSMs 	435
scalar MyScenario.node[8].appl 	generatedWSAs 	0
scalar MyScenario.node[8].appl 	receivedWSAs 	0
scalar MyScenario.node[8].nic.phy80211p 	busyTime 	0.0029
scalar MyScenario.node[8].nic.mac1609_4 	ReceivedUnicastPackets 	0
scalar MyScenario.node[8].nic.mac1609_4 	ReceivedBroadcasts 	435
scalar MyScenario.node[8].nic.mac1609_4 	SentPackets 	16
scalar MyScenario.node[8].nic.mac1609_4 	SNIRLostPackets 	0
scalar MyScenario.node[8].nic.mac1609_4 	RXTXLostPackets 	0
scalar MyScenario.node[8].nic.mac1609_4 	TotalLostPackets 	0
scalar MyScenario.node[8].nic.mac1609_4 	DroppedPacketsInMac 	0
scalar MyScenario.node[8].nic.mac1609_4 	TooLittleTime 	0
scalar MyScenario.node[8].nic.mac1609_4 	TimesIntoBackoff 	16
scalar MyScenario.node[8].nic.mac1609_4 	SlotsBackoff 	24
scalar MyScenario.node[8].nic.mac1609_4 	NumInternalContention 	0
scalar MyScenario.node[8].nic.mac1609_4 	totalBusyTime 	0.04692
scalar MyScenario.node[8].veinsmobility 	startTime 	25200
scalar MyScenario.node[8].veinsmobility 	totalTime 	15.5
scalar MyScenario.node[8].veinsmobility 	stopTime 	25215.6
scalar MyScenario.node[8].veinsmobility 	minSpeed 	35.370268536444
scalar MyScenario.node[8].veinsmobility 	maxSpeed 	35.517576546901
scalar MyScenario.node[8].veinsmobility 	totalDistance 	549.35739557985
scalar MyScenario.node[8].veinsmobility 	totalCO2Emission 	107.43839973366
scalar MyScenario.node[39].appl 	generatedWSMs 	0
scalar MyScenario.node[39].appl 	receivedWSMs 	0
scalar MyScenario.node[39].appl 	generatedBSMs 	15
scalar MyScenario.node[39].appl 	receivedBSMs 	426
scalar MyScenario.node[39].appl 	generatedWSAs 	0
scalar MyScenario.node[39].appl 	receivedWSAs 	0
scalar MyScenario.node[39].nic.phy80211p 	busyTime 	0.00284
scalar MyScenario.node[39].nic.mac1609_4 	ReceivedUnicastPackets 	0
scalar MyScenario.node[39].nic.mac1609_4 	ReceivedBroadcasts 	426
scalar MyScenario.node[39].nic.mac1609_4 	SentPackets 	15
scalar MyScenario.node[39].nic.mac1609_4 	SNIRLostPackets 	0
scalar MyScenario.node[39].nic.mac1609_4 	RXTXLostPackets 	0
scalar MyScenario.node[39].nic.mac1609_4 	TotalLostPackets 	0
scalar MyScenario.node[39].nic.mac1609_4 	DroppedPacketsInMac 	0
scalar MyScenario.node[39].nic.mac1609_4 	TooLittleTime 	0
scalar MyScenario.node[39].nic.mac1609_4 	TimesIntoBackoff 	15
scalar MyScenario.node[39].nic.mac1609_4 	SlotsBackoff 	22
scalar MyScenario.node[39].nic.mac1609_4 	NumInternalContention 	0
scalar MyScenario.node[39].nic.mac1609_4 	totalBusyTime 	0.045879
scalar MyScenario.node[39].veinsmobility 	startTime 	25200
scalar MyScenario.node[39].veinsmobility 	totalTime 	15.5
scalar MyScenario.node[39].veinsmobility 	stopTime 	25215.6
scalar MyScenario.node[39].veinsmobility 	minSpeed 	31.798581248057
scalar MyScenario.node[39].veinsmobility 	maxSpeed 	32.04513386405
scalar MyScenario.node[39].veinsmobility 	totalDistance 	494.20687716109
scalar MyScenario.node[39].veinsmobility 	totalCO2Emission 	97.001660636283
scalar MyScenario.node[99].appl 	generatedWSMs 	0
scalar MyScenario.node[99].appl 	receivedWSMs 	0
scalar MyScenario.node[99].appl 	generatedBSMs 	16
scalar MyScenario.node[99].appl 	receivedBSMs 	529
scalar MyScenario.node[99].appl 	generatedWSAs 	0
scalar MyScenario.node[99].appl 	receivedWSAs 	0
scalar MyScenario.node[99].nic.phy80211p 	busyTime 	0.0034666666666667
scalar MyScenario.node[99].nic.mac1609_4 	ReceivedUnicastPackets 	0
scalar MyScenario.node[99].nic.mac1609_4 	ReceivedBroadcasts 	529
scalar MyScenario.node[99].nic.mac1609_4 	SentPackets 	16
scalar MyScenario.node[99].nic.mac1609_4 	SNIRLostPackets 	1
scalar MyScenario.node[99].nic.mac1609_4 	RXTXLostPackets 	0
scalar MyScenario.node[99].nic.mac1609_4 	TotalLostPackets 	1
scalar MyScenario.node[99].nic.mac1609_4 	DroppedPacketsInMac 	0
scalar MyScenario.node[99].nic.mac1609_4 	TooLittleTime 	0
scalar MyScenario.node[99].nic.mac1609_4 	TimesIntoBackoff 	16
scalar MyScenario.node[99].nic.mac1609_4 	SlotsBackoff 	23
scalar MyScenario.node[99].nic.mac1609_4 	NumInternalContention 	0
scalar MyScenario.node[99].nic.mac1609_4 	totalBusyTime 	0.0568
scalar MyScenario.node[99].veinsmobility 	startTime 	25200
scalar MyScenario.node[99].veinsmobility 	totalTime 	15.8
scalar MyScenario.node[99].veinsmobility 	stopTime 	25215.9
[...]
scalar MyScenario.node[315].nic.mac1609_4 	SlotsBackoff 	96
scalar MyScenario.node[315].nic.mac1609_4 	NumInternalContention 	0
scalar MyScenario.node[315].nic.mac1609_4 	totalBusyTime 	0.356786
scalar MyScenario.node[315].veinsmobility 	startTime 	25234
scalar MyScenario.node[315].veinsmobility 	totalTime 	66
scalar MyScenario.node[315].veinsmobility 	stopTime 	25300
scalar MyScenario.node[315].veinsmobility 	minSpeed 	4.5362244127574e-14
scalar MyScenario.node[315].veinsmobility 	maxSpeed 	12.91544197493
scalar MyScenario.node[315].veinsmobility 	totalDistance 	194.11112574166
scalar MyScenario.node[315].veinsmobility 	totalCO2Emission 	87.087049641207
scalar MyScenario.node[334].appl 	generatedWSMs 	0
scalar MyScenario.node[334].appl 	receivedWSMs 	0
scalar MyScenario.node[334].appl 	generatedBSMs 	62
scalar MyScenario.node[334].appl 	receivedBSMs 	517
scalar MyScenario.node[334].appl 	generatedWSAs 	0
scalar MyScenario.node[334].appl 	receivedWSAs 	0
scalar MyScenario.node[334].nic.phy80211p 	busyTime 	0.00086722580645161
scalar MyScenario.node[334].nic.mac1609_4 	ReceivedUnicastPackets 	0
scalar MyScenario.node[334].nic.mac1609_4 	ReceivedBroadcasts 	517
scalar MyScenario.node[334].nic.mac1609_4 	SentPackets 	62
scalar MyScenario.node[334].nic.mac1609_4 	SNIRLostPackets 	0
scalar MyScenario.node[334].nic.mac1609_4 	RXTXLostPackets 	0
scalar MyScenario.node[334].nic.mac1609_4 	TotalLostPackets 	0
scalar MyScenario.node[334].nic.mac1609_4 	DroppedPacketsInMac 	0
scalar MyScenario.node[334].nic.mac1609_4 	TooLittleTime 	0
scalar MyScenario.node[334].nic.mac1609_4 	TimesIntoBackoff 	62
scalar MyScenario.node[334].nic.mac1609_4 	SlotsBackoff 	87
scalar MyScenario.node[334].nic.mac1609_4 	NumInternalContention 	0
scalar MyScenario.node[334].nic.mac1609_4 	totalBusyTime 	0.060278
scalar MyScenario.node[334].veinsmobility 	startTime 	25238
scalar MyScenario.node[334].veinsmobility 	totalTime 	62
scalar MyScenario.node[334].veinsmobility 	stopTime 	25300
scalar MyScenario.node[334].veinsmobility 	minSpeed 	3.396545107867
scalar MyScenario.node[334].veinsmobility 	maxSpeed 	17.465177991427
scalar MyScenario.node[334].veinsmobility 	totalDistance 	789.23538011021
scalar MyScenario.node[334].veinsmobility 	totalCO2Emission 	203.5389756488
scalar MyScenario.node[298].appl 	generatedWSMs 	0
scalar MyScenario.node[298].appl 	receivedWSMs 	0
scalar MyScenario.node[298].appl 	generatedBSMs 	73
scalar MyScenario.node[298].appl 	receivedBSMs 	539
scalar MyScenario.node[298].appl 	generatedWSAs 	0
scalar MyScenario.node[298].appl 	receivedWSAs 	0
scalar MyScenario.node[298].nic.phy80211p 	busyTime 	0.00076894375857339
scalar MyScenario.node[298].nic.mac1609_4 	ReceivedUnicastPackets 	0
scalar MyScenario.node[298].nic.mac1609_4 	ReceivedBroadcasts 	539
scalar MyScenario.node[298].nic.mac1609_4 	SentPackets 	73
scalar MyScenario.node[298].nic.mac1609_4 	SNIRLostPackets 	0
scalar MyScenario.node[298].nic.mac1609_4 	RXTXLostPackets 	0
scalar MyScenario.node[298].nic.mac1609_4 	TotalLostPackets 	0
scalar MyScenario.node[298].nic.mac1609_4 	DroppedPacketsInMac 	0
scalar MyScenario.node[298].nic.mac1609_4 	TooLittleTime 	0
scalar MyScenario.node[298].nic.mac1609_4 	TimesIntoBackoff 	73
scalar MyScenario.node[298].nic.mac1609_4 	SlotsBackoff 	94
scalar MyScenario.node[298].nic.mac1609_4 	NumInternalContention 	0
scalar MyScenario.node[298].nic.mac1609_4 	totalBusyTime 	0.063721
scalar MyScenario.node[298].veinsmobility 	startTime 	25227.1
scalar MyScenario.node[298].veinsmobility 	totalTime 	72.9
scalar MyScenario.node[298].veinsmobility 	stopTime 	25300
scalar MyScenario.node[298].veinsmobility 	minSpeed 	0.28784578394727
scalar MyScenario.node[298].veinsmobility 	maxSpeed 	13.548030560375
scalar MyScenario.node[298].veinsmobility 	totalDistance 	753.66774738989
scalar MyScenario.node[298].veinsmobility 	totalCO2Emission 	219.22838958925
scalar MyScenario.node[295].appl 	generatedWSMs 	0
scalar MyScenario.node[295].appl 	receivedWSMs 	0
scalar MyScenario.node[295].appl 	generatedBSMs 	74
scalar MyScenario.node[295].appl 	receivedBSMs 	520
scalar MyScenario.node[295].appl 	generatedWSAs 	0
scalar MyScenario.node[295].appl 	receivedWSAs 	0
scalar MyScenario.node[295].nic.phy80211p 	busyTime 	0.00073179972936401
scalar MyScenario.node[295].nic.mac1609_4 	ReceivedUnicastPackets 	0
scalar MyScenario.node[295].nic.mac1609_4 	ReceivedBroadcasts 	520
scalar MyScenario.node[295].nic.mac1609_4 	SentPackets 	74
scalar MyScenario.node[295].nic.mac1609_4 	SNIRLostPackets 	0
scalar MyScenario.node[295].nic.mac1609_4 	RXTXLostPackets 	0
scalar MyScenario.node[295].nic.mac1609_4 	TotalLostPackets 	0
scalar MyScenario.node[295].nic.mac1609_4 	DroppedPacketsInMac 	0
scalar MyScenario.node[295].nic.mac1609_4 	TooLittleTime 	0
scalar MyScenario.node[295].nic.mac1609_4 	TimesIntoBackoff 	74
scalar MyScenario.node[295].nic.mac1609_4 	SlotsBackoff 	115
scalar MyScenario.node[295].nic.mac1609_4 	NumInternalContention 	0
scalar MyScenario.node[295].nic.mac1609_4 	totalBusyTime 	0.06185
scalar MyScenario.node[295].veinsmobility 	startTime 	25226.1
scalar MyScenario.node[295].veinsmobility 	totalTime 	73.9
scalar MyScenario.node[295].veinsmobility 	stopTime 	25300
scalar MyScenario.node[295].veinsmobility 	minSpeed 	0.27024715100043
scalar MyScenario.node[295].veinsmobility 	maxSpeed 	12.712267907276
scalar MyScenario.node[295].veinsmobility 	totalDistance 	748.50518458946
scalar MyScenario.node[295].veinsmobility 	totalCO2Emission 	206.83925109856
scalar MyScenario.node[313].appl 	generatedWSMs 	0
scalar MyScenario.node[313].appl 	receivedWSMs 	0
scalar MyScenario.node[313].appl 	generatedBSMs 	67
scalar MyScenario.node[313].appl 	receivedBSMs 	970
scalar MyScenario.node[313].appl 	generatedWSAs 	0
scalar MyScenario.node[313].appl 	receivedWSAs 	0
scalar MyScenario.node[313].nic.phy80211p 	busyTime 	0.001512443778111
scalar MyScenario.node[313].nic.mac1609_4 	ReceivedUnicastPackets 	0
scalar MyScenario.node[313].nic.mac1609_4 	ReceivedBroadcasts 	970
scalar MyScenario.node[313].nic.mac1609_4 	SentPackets 	67
scalar MyScenario.node[313].nic.mac1609_4 	SNIRLostPackets 	0
scalar MyScenario.node[313].nic.mac1609_4 	RXTXLostPackets 	0
scalar MyScenario.node[313].nic.mac1609_4 	TotalLostPackets 	0
scalar MyScenario.node[313].nic.mac1609_4 	DroppedPacketsInMac 	0
scalar MyScenario.node[313].nic.mac1609_4 	TooLittleTime 	0
scalar MyScenario.node[313].nic.mac1609_4 	TimesIntoBackoff 	67
scalar MyScenario.node[313].nic.mac1609_4 	SlotsBackoff 	88
scalar MyScenario.node[313].nic.mac1609_4 	NumInternalContention 	0
scalar MyScenario.node[313].nic.mac1609_4 	totalBusyTime 	0.107915
scalar MyScenario.node[313].veinsmobility 	startTime 	25233.3
scalar MyScenario.node[313].veinsmobility 	totalTime 	66.7
scalar MyScenario.node[313].veinsmobility 	stopTime 	25300
scalar MyScenario.node[313].veinsmobility 	minSpeed 	13.446762714482
scalar MyScenario.node[313].veinsmobility 	maxSpeed 	35.290544667093
scalar MyScenario.node[313].veinsmobility 	totalDistance 	1497.373773955
scalar MyScenario.node[313].veinsmobility 	totalCO2Emission 	262.39891828641
scalar MyScenario.node[205].appl 	generatedWSMs 	0
scalar MyScenario.node[205].appl 	receivedWSMs 	0
scalar MyScenario.node[205].appl 	generatedBSMs 	100
scalar MyScenario.node[205].appl 	receivedBSMs 	5405
scalar MyScenario.node[205].appl 	generatedWSAs 	0
scalar MyScenario.node[205].appl 	receivedWSAs 	0
scalar MyScenario.node[205].nic.phy80211p 	busyTime 	0.0056253599999997
scalar MyScenario.node[205].nic.mac1609_4 	ReceivedUnicastPackets 	0
scalar MyScenario.node[205].nic.mac1609_4 	ReceivedBroadcasts 	5405
scalar MyScenario.node[205].nic.mac1609_4 	SentPackets 	100
scalar MyScenario.node[205].nic.mac1609_4 	SNIRLostPackets 	4
scalar MyScenario.node[205].nic.mac1609_4 	RXTXLostPackets 	0
scalar MyScenario.node[205].nic.mac1609_4 	TotalLostPackets 	4
scalar MyScenario.node[205].nic.mac1609_4 	DroppedPacketsInMac 	0
scalar MyScenario.node[205].nic.mac1609_4 	TooLittleTime 	0
scalar MyScenario.node[205].nic.mac1609_4 	TimesIntoBackoff 	100
scalar MyScenario.node[205].nic.mac1609_4 	SlotsBackoff 	164
scalar MyScenario.node[205].nic.mac1609_4 	NumInternalContention 	0
scalar MyScenario.node[205].nic.mac1609_4 	totalBusyTime 	0.572828
scalar MyScenario.node[205].veinsmobility 	startTime 	25200
scalar MyScenario.node[205].veinsmobility 	totalTime 	100
scalar MyScenario.node[205].veinsmobility 	stopTime 	25300
scalar MyScenario.node[205].veinsmobility 	minSpeed 	4.5362211475629e-14
scalar MyScenario.node[205].veinsmobility 	maxSpeed 	4.5312114801194
scalar MyScenario.node[205].veinsmobility 	totalDistance 	7.2531990764335
scalar MyScenario.node[205].veinsmobility 	totalCO2Emission 	110.39883181383
scalar MyScenario.node[494].appl 	generatedWSMs 	0
scalar MyScenario.node[494].appl 	receivedWSMs 	0
scalar MyScenario.node[494].appl 	generatedBSMs 	1
scalar MyScenario.node[494].appl 	receivedBSMs 	19
scalar MyScenario.node[494].appl 	generatedWSAs 	0
scalar MyScenario.node[494].appl 	receivedWSAs 	0
scalar MyScenario.node[494].nic.phy80211p 	busyTime 	0.003952
scalar MyScenario.node[494].nic.mac1609_4 	ReceivedUnicastPackets 	0
scalar MyScenario.node[494].nic.mac1609_4 	ReceivedBroadcasts 	19
scalar MyScenario.node[494].nic.mac1609_4 	SentPackets 	1
scalar MyScenario.node[494].nic.mac1609_4 	SNIRLostPackets 	0
scalar MyScenario.node[494].nic.mac1609_4 	RXTXLostPackets 	0
scalar MyScenario.node[494].nic.mac1609_4 	TotalLostPackets 	0
scalar MyScenario.node[494].nic.mac1609_4 	DroppedPacketsInMac 	0
scalar MyScenario.node[494].nic.mac1609_4 	TooLittleTime 	0
scalar MyScenario.node[494].nic.mac1609_4 	TimesIntoBackoff 	1
scalar MyScenario.node[494].nic.mac1609_4 	SlotsBackoff 	1
scalar MyScenario.node[494].nic.mac1609_4 	NumInternalContention 	0
scalar MyScenario.node[494].nic.mac1609_4 	totalBusyTime 	0.002081
scalar MyScenario.node[494].veinsmobility 	startTime 	25299.5
scalar MyScenario.node[494].veinsmobility 	totalTime 	0.5
scalar MyScenario.node[494].veinsmobility 	stopTime 	25300
scalar MyScenario.node[494].veinsmobility 	minSpeed 	14.841223868662
scalar MyScenario.node[494].veinsmobility 	maxSpeed 	14.94500620739
scalar MyScenario.node[494].veinsmobility 	totalDistance 	7.4453506740566
scalar MyScenario.node[494].veinsmobility 	totalCO2Emission 	0.69454696472729
scalar MyScenario.node[440].appl 	generatedWSMs 	0
scalar MyScenario.node[440].appl 	receivedWSMs 	0
scalar MyScenario.node[440].appl 	generatedBSMs 	18
scalar MyScenario.node[440].appl 	receivedBSMs 	148
scalar MyScenario.node[440].appl 	generatedWSAs 	0
scalar MyScenario.node[440].appl 	receivedWSAs 	0
scalar MyScenario.node[440].nic.phy80211p 	busyTime 	0.00085988826815642
scalar MyScenario.node[440].nic.mac1609_4 	ReceivedUnicastPackets 	0
scalar MyScenario.node[440].nic.mac1609_4 	ReceivedBroadcasts 	148
scalar MyScenario.node[440].nic.mac1609_4 	SentPackets 	18
scalar MyScenario.node[440].nic.mac1609_4 	SNIRLostPackets 	0
scalar MyScenario.node[440].nic.mac1609_4 	RXTXLostPackets 	0
scalar MyScenario.node[440].nic.mac1609_4 	TotalLostPackets 	0
scalar MyScenario.node[440].nic.mac1609_4 	DroppedPacketsInMac 	0
scalar MyScenario.node[440].nic.mac1609_4 	TooLittleTime 	0
scalar MyScenario.node[440].nic.mac1609_4 	TimesIntoBackoff 	18
scalar MyScenario.node[440].nic.mac1609_4 	SlotsBackoff 	23
scalar MyScenario.node[440].nic.mac1609_4 	NumInternalContention 	0
scalar MyScenario.node[440].nic.mac1609_4 	totalBusyTime 	0.017282
scalar MyScenario.node[440].veinsmobility 	startTime 	25282.1
scalar MyScenario.node[440].veinsmobility 	totalTime 	17.9
scalar MyScenario.node[440].veinsmobility 	stopTime 	25300
scalar MyScenario.node[440].veinsmobility 	minSpeed 	0.45907162890608
scalar MyScenario.node[440].veinsmobility 	maxSpeed 	12.363313460866
scalar MyScenario.node[440].veinsmobility 	totalDistance 	166.21026451892
scalar MyScenario.node[440].veinsmobility 	totalCO2Emission 	46.49587707968
scalar MyScenario.node[206].appl 	generatedWSMs 	0
scalar MyScenario.node[206].appl 	receivedWSMs 	0
scalar MyScenario.node[206].appl 	generatedBSMs 	100
scalar MyScenario.node[206].appl 	receivedBSMs 	1473
scalar MyScenario.node[206].appl 	generatedWSAs 	0
scalar MyScenario.node[206].appl 	receivedWSAs 	0
scalar MyScenario.node[206].nic.phy80211p 	busyTime 	0.00153192
scalar MyScenario.node[206].nic.mac1609_4 	ReceivedUnicastPackets 	0
scalar MyScenario.node[206].nic.mac1609_4 	ReceivedBroadcasts 	1473
scalar MyScenario.node[206].nic.mac1609_4 	SentPackets 	100
scalar MyScenario.node[206].nic.mac1609_4 	SNIRLostPackets 	0
scalar MyScenario.node[206].nic.mac1609_4 	RXTXLostPackets 	0
scalar MyScenario.node[206].nic.mac1609_4 	TotalLostPackets 	0
scalar MyScenario.node[206].nic.mac1609_4 	DroppedPacketsInMac 	0
scalar MyScenario.node[206].nic.mac1609_4 	TooLittleTime 	0
scalar MyScenario.node[206].nic.mac1609_4 	TimesIntoBackoff 	100
scalar MyScenario.node[206].nic.mac1609_4 	SlotsBackoff 	147
scalar MyScenario.node[206].nic.mac1609_4 	NumInternalContention 	0
scalar MyScenario.node[206].nic.mac1609_4 	totalBusyTime 	0.163692
scalar MyScenario.node[206].veinsmobility 	startTime 	25200
scalar MyScenario.node[206].veinsmobility 	totalTime 	100
scalar MyScenario.node[206].veinsmobility 	stopTime 	25300
scalar MyScenario.node[206].veinsmobility 	minSpeed 	0
scalar MyScenario.node[206].veinsmobility 	maxSpeed 	14.201007642472
scalar MyScenario.node[206].veinsmobility 	totalDistance 	566.03211270251
scalar MyScenario.node[206].veinsmobility 	totalCO2Emission 	211.72588462317
scalar MyScenario.node[208].appl 	generatedWSMs 	0
scalar MyScenario.node[208].appl 	receivedWSMs 	0
scalar MyScenario.node[208].appl 	generatedBSMs 	100
scalar MyScenario.node[208].appl 	receivedBSMs 	1774
scalar MyScenario.node[208].appl 	generatedWSAs 	0
scalar MyScenario.node[208].appl 	receivedWSAs 	0
scalar MyScenario.node[208].nic.phy80211p 	busyTime 	0.00184496
scalar MyScenario.node[208].nic.mac1609_4 	ReceivedUnicastPackets 	0
scalar MyScenario.node[208].nic.mac1609_4 	ReceivedBroadcasts 	1774
scalar MyScenario.node[208].nic.mac1609_4 	SentPackets 	100
scalar MyScenario.node[208].nic.mac1609_4 	SNIRLostPackets 	0
scalar MyScenario.node[208].nic.mac1609_4 	RXTXLostPackets 	0
scalar MyScenario.node[208].nic.mac1609_4 	TotalLostPackets 	0
scalar MyScenario.node[208].nic.mac1609_4 	DroppedPacketsInMac 	0
scalar MyScenario.node[208].nic.mac1609_4 	TooLittleTime 	0
scalar MyScenario.node[208].nic.mac1609_4 	TimesIntoBackoff 	100
scalar MyScenario.node[208].nic.mac1609_4 	SlotsBackoff 	142
scalar MyScenario.node[208].nic.mac1609_4 	NumInternalContention 	0
scalar MyScenario.node[208].nic.mac1609_4 	totalBusyTime 	0.194996
scalar MyScenario.node[208].veinsmobility 	startTime 	25200
scalar MyScenario.node[208].veinsmobility 	totalTime 	100
scalar MyScenario.node[208].veinsmobility 	stopTime 	25300
scalar MyScenario.node[208].veinsmobility 	minSpeed 	0
scalar MyScenario.node[208].veinsmobility 	maxSpeed 	16.504273369403
scalar MyScenario.node[208].veinsmobility 	totalDistance 	645.72346817611
scalar MyScenario.node[208].veinsmobility 	totalCO2Emission 	209.6103859302
scalar MyScenario.node[490].appl 	generatedWSMs 	0
scalar MyScenario.node[490].appl 	receivedWSMs 	0
scalar MyScenario.node[490].appl 	generatedBSMs 	2
scalar MyScenario.node[490].appl 	receivedBSMs 	28
scalar MyScenario.node[490].appl 	generatedWSAs 	0
scalar MyScenario.node[490].appl 	receivedWSAs 	0
scalar MyScenario.node[490].nic.phy80211p 	busyTime 	0.0013236363636364
scalar MyScenario.node[490].nic.mac1609_4 	ReceivedUnicastPackets 	0
scalar MyScenario.node[490].nic.mac1609_4 	ReceivedBroadcasts 	28
scalar MyScenario.node[490].nic.mac1609_4 	SentPackets 	2
scalar MyScenario.node[490].nic.mac1609_4 	SNIRLostPackets 	0
scalar MyScenario.node[490].nic.mac1609_4 	RXTXLostPackets 	0
scalar MyScenario.node[490].nic.mac1609_4 	TotalLostPackets 	0
scalar MyScenario.node[490].nic.mac1609_4 	DroppedPacketsInMac 	0
scalar MyScenario.node[490].nic.mac1609_4 	TooLittleTime 	0
scalar MyScenario.node[490].nic.mac1609_4 	TimesIntoBackoff 	3
scalar MyScenario.node[490].nic.mac1609_4 	SlotsBackoff 	6
scalar MyScenario.node[490].nic.mac1609_4 	NumInternalContention 	0
scalar MyScenario.node[490].nic.mac1609_4 	totalBusyTime 	0.003122
scalar MyScenario.node[490].veinsmobility 	startTime 	25297.8
scalar MyScenario.node[490].veinsmobility 	totalTime 	2.2
scalar MyScenario.node[490].veinsmobility 	stopTime 	25300
scalar MyScenario.node[490].veinsmobility 	minSpeed 	17.548691249123
scalar MyScenario.node[490].veinsmobility 	maxSpeed 	17.678456752399
scalar MyScenario.node[490].veinsmobility 	totalDistance 	38.874625200154
scalar MyScenario.node[490].veinsmobility 	totalCO2Emission 	6.8184405282866
scalar MyScenario.node[210].appl 	generatedWSMs 	0
scalar MyScenario.node[210].appl 	receivedWSMs 	0
scalar MyScenario.node[210].appl 	generatedBSMs 	100
scalar MyScenario.node[210].appl 	receivedBSMs 	1631
scalar MyScenario.node[210].appl 	generatedWSAs 	0
scalar MyScenario.node[210].appl 	receivedWSAs 	0
scalar MyScenario.node[210].nic.phy80211p 	busyTime 	0.00169624
scalar MyScenario.node[210].nic.mac1609_4 	ReceivedUnicastPackets 	0
scalar MyScenario.node[210].nic.mac1609_4 	ReceivedBroadcasts 	1631
scalar MyScenario.node[210].nic.mac1609_4 	SentPackets 	100
scalar MyScenario.node[210].nic.mac1609_4 	SNIRLostPackets 	0
scalar MyScenario.node[210].nic.mac1609_4 	RXTXLostPackets 	0
scalar MyScenario.node[210].nic.mac1609_4 	TotalLostPackets 	0
scalar MyScenario.node[210].nic.mac1609_4 	DroppedPacketsInMac 	0
scalar MyScenario.node[210].nic.mac1609_4 	TooLittleTime 	0
scalar MyScenario.node[210].nic.mac1609_4 	TimesIntoBackoff 	100
scalar MyScenario.node[210].nic.mac1609_4 	SlotsBackoff 	143
scalar MyScenario.node[210].nic.mac1609_4 	NumInternalContention 	0
scalar MyScenario.node[210].nic.mac1609_4 	totalBusyTime 	0.180124
scalar MyScenario.node[210].veinsmobility 	startTime 	25200
scalar MyScenario.node[210].veinsmobility 	totalTime 	100
scalar MyScenario.node[210].veinsmobility 	stopTime 	25300
scalar MyScenario.node[210].veinsmobility 	minSpeed 	0
scalar MyScenario.node[210].veinsmobility 	maxSpeed 	16.875719155265
scalar MyScenario.node[210].veinsmobility 	totalDistance 	398.11373317141
scalar MyScenario.node[210].veinsmobility 	totalCO2Emission 	202.44239860405
scalar MyScenario.node[489].appl 	generatedWSMs 	0
scalar MyScenario.node[489].appl 	receivedWSMs 	0
scalar MyScenario.node[489].appl 	generatedBSMs 	3
scalar MyScenario.node[489].appl 	receivedBSMs 	35
scalar MyScenario.node[489].appl 	generatedWSAs 	0
scalar MyScenario.node[489].appl 	receivedWSAs 	0
scalar MyScenario.node[489].nic.phy80211p 	busyTime 	0.001456
scalar MyScenario.node[489].nic.mac1609_4 	ReceivedUnicastPackets 	0
scalar MyScenario.node[489].nic.mac1609_4 	ReceivedBroadcasts 	35
scalar MyScenario.node[489].nic.mac1609_4 	SentPackets 	3
scalar MyScenario.node[489].nic.mac1609_4 	SNIRLostPackets 	0
scalar MyScenario.node[489].nic.mac1609_4 	RXTXLostPackets 	0
scalar MyScenario.node[489].nic.mac1609_4 	TotalLostPackets 	0
scalar MyScenario.node[489].nic.mac1609_4 	DroppedPacketsInMac 	0
scalar MyScenario.node[489].nic.mac1609_4 	TooLittleTime 	0
scalar MyScenario.node[489].nic.mac1609_4 	TimesIntoBackoff 	3
scalar MyScenario.node[489].nic.mac1609_4 	SlotsBackoff 	5
scalar MyScenario.node[489].nic.mac1609_4 	NumInternalContention 	0
scalar MyScenario.node[489].nic.mac1609_4 	totalBusyTime 	0.003955
scalar MyScenario.node[489].veinsmobility 	startTime 	25297.5
scalar MyScenario.node[489].veinsmobility 	totalTime 	2.5
scalar MyScenario.node[489].veinsmobility 	stopTime 	25300
scalar MyScenario.node[489].veinsmobility 	minSpeed 	13.841009919393
scalar MyScenario.node[489].veinsmobility 	maxSpeed 	13.969404740176
scalar MyScenario.node[489].veinsmobility 	totalDistance 	34.673905067328
scalar MyScenario.node[489].veinsmobility 	totalCO2Emission 	5.7055673235975
