version 2
run AttackerType1-7-20180205-16:54:21-62970
attr configname AttackerType1
attr datetime 20180205-16:54:21
attr experiment AttackerType1
attr inifile omnetpp_7.ini
attr iterationvars "$start=3, $0=0.2"
attr iterationvarsf start=3,0.2-
attr measurement "$start=3, $0=0.2"
attr network MyScenario
attr processid 62970
attr repetition 2
attr replication #2
attr resultdir results
attr runnumber 7
attr seedset 2
attr start 3
param **.**.**.debug false
param **.**.nic.**.debug false
param **.coreDebug false
param **.debug false
param *.**.nic.mac1609_4.bitrate 6Mbps
param *.**.nic.mac1609_4.txPower 20mW
param *.**.nic.mac1609_4.useServiceChannel false
param *.**.nic.phy80211p.analogueModels "xmldoc(\"config.xml\")"
param *.**.nic.phy80211p.antenna "xmldoc(\"antenna.xml\", \"/root/Antenna[@id='monopole']\")"
param *.**.nic.phy80211p.decider "xmldoc(\"config.xml\")"
param *.**.nic.phy80211p.sensitivity -89dBm
param *.**.nic.phy80211p.thermalNoise -110dBm
param *.**.nic.phy80211p.usePropagationDelay true
param *.**.nic.phy80211p.useThermalNoise true
param *.**.veinsmobility.x 0
param *.**.veinsmobility.y 0
param *.**.veinsmobility.z 1.895
param *.**.veinsmobilityType.debug false
param *.annotations.draw false
param *.connectionManager.drawMaxIntfDist false
param *.connectionManager.maxInterfDist 2600m
param *.connectionManager.sendDirect true
param *.manager.autoShutdown true
param *.manager.configFile "\"dua.static.sumocfg\""
param *.manager.firstStepAt 3h
param *.manager.host "\"localhost\""
param *.manager.launchConfig "xmldoc(\"luxembourg.launchd.xml\")"
param *.manager.roiRects "\"2300,5400-6300,6300\""
param *.manager.seed 2
param *.manager.updateInterval 0.1s
param *.node[*].appl.attackerProbability 0.2
param *.node[*].appl.attackerType 1
param *.node[*].appl.attackerXPos 5560
param *.node[*].appl.attackerYPos 5820
param *.node[*].appl.beaconInterval 1s
param *.node[*].appl.dataOnSch false
param *.node[*].appl.headerLength "80 bit"
param *.node[*].appl.sendBeacons true
param *.node[*].appl.traceGroundTruthJSONFile "\"GroundTruthJSONlog\""
param *.node[*].appl.traceJSONFile "\"JSONlog-\""
param *.node[*].applType "\"AttackerApp\""
param *.obstacles.debug false
param *.obstacles.obstacles "xmldoc(\"config.xml\", \"//AnalogueModel[@type='SimpleObstacleShadowing']/obstacles\")"
param *.playgroundSizeX 13640m
param *.playgroundSizeY 11500m
param *.playgroundSizeZ 50m

scalar _runattrs_ 	start 	3
scalar MyScenario.node[9].appl 	generatedWSMs 	0
scalar MyScenario.node[9].appl 	receivedWSMs 	0
scalar MyScenario.node[9].appl 	generatedBSMs 	2
scalar MyScenario.node[9].appl 	receivedBSMs 	3
scalar MyScenario.node[9].appl 	generatedWSAs 	0
scalar MyScenario.node[9].appl 	receivedWSAs 	0
scalar MyScenario.node[9].nic.phy80211p 	busyTime 	0.000156
scalar MyScenario.node[9].nic.mac1609_4 	ReceivedUnicastPackets 	0
scalar MyScenario.node[9].nic.mac1609_4 	ReceivedBroadcasts 	3
scalar MyScenario.node[9].nic.mac1609_4 	SentPackets 	2
scalar MyScenario.node[9].nic.mac1609_4 	SNIRLostPackets 	0
scalar MyScenario.node[9].nic.mac1609_4 	RXTXLostPackets 	0
scalar MyScenario.node[9].nic.mac1609_4 	TotalLostPackets 	0
scalar MyScenario.node[9].nic.mac1609_4 	DroppedPacketsInMac 	0
scalar MyScenario.node[9].nic.mac1609_4 	TooLittleTime 	0
scalar MyScenario.node[9].nic.mac1609_4 	TimesIntoBackoff 	2
scalar MyScenario.node[9].nic.mac1609_4 	SlotsBackoff 	2
scalar MyScenario.node[9].nic.mac1609_4 	NumInternalContention 	0
scalar MyScenario.node[9].nic.mac1609_4 	totalBusyTime 	0.000522
scalar MyScenario.node[9].veinsmobility 	startTime 	10800
scalar MyScenario.node[9].veinsmobility 	totalTime 	1.9
scalar MyScenario.node[9].veinsmobility 	stopTime 	10802
scalar MyScenario.node[9].veinsmobility 	minSpeed 	36.245716362847
scalar MyScenario.node[9].veinsmobility 	maxSpeed 	36.364104862001
scalar MyScenario.node[9].veinsmobility 	totalDistance 	69.047651752852
scalar MyScenario.node[9].veinsmobility 	totalCO2Emission 	13.367277426773
scalar MyScenario.node[4].appl 	generatedWSMs 	0
scalar MyScenario.node[4].appl 	receivedWSMs 	0
scalar MyScenario.node[4].appl 	generatedBSMs 	4
scalar MyScenario.node[4].appl 	receivedBSMs 	26
scalar MyScenario.node[4].appl 	generatedWSAs 	0
scalar MyScenario.node[4].appl 	receivedWSAs 	0
scalar MyScenario.node[4].nic.phy80211p 	busyTime 	0.00069333333333333
scalar MyScenario.node[4].nic.mac1609_4 	ReceivedUnicastPackets 	0
scalar MyScenario.node[4].nic.mac1609_4 	ReceivedBroadcasts 	26
scalar MyScenario.node[4].nic.mac1609_4 	SentPackets 	4
scalar MyScenario.node[4].nic.mac1609_4 	SNIRLostPackets 	0
scalar MyScenario.node[4].nic.mac1609_4 	RXTXLostPackets 	0
scalar MyScenario.node[4].nic.mac1609_4 	TotalLostPackets 	0
scalar MyScenario.node[4].nic.mac1609_4 	DroppedPacketsInMac 	0
scalar MyScenario.node[4].nic.mac1609_4 	TooLittleTime 	0
scalar MyScenario.node[4].nic.mac1609_4 	TimesIntoBackoff 	4
scalar MyScenario.node[4].nic.mac1609_4 	SlotsBackoff 	3
scalar MyScenario.node[4].nic.mac1609_4 	NumInternalContention 	0
scalar MyScenario.node[4].nic.mac1609_4 	totalBusyTime 	0.003124
scalar MyScenario.node[4].veinsmobility 	startTime 	10800
scalar MyScenario.node[4].veinsmobility 	totalTime 	3.8
scalar MyScenario.node[4].veinsmobility 	stopTime 	10803.9
scalar MyScenario.node[4].veinsmobility 	minSpeed 	29.880367196482
scalar MyScenario.node[4].veinsmobility 	maxSpeed 	29.99809977388
scalar MyScenario.node[4].veinsmobility 	totalDistance 	113.90478369795
scalar MyScenario.node[4].veinsmobility 	totalCO2Emission 	18.180630866748
scalar MyScenario.node[0].appl 	generatedWSMs 	0
scalar MyScenario.node[0].appl 	receivedWSMs 	0
scalar MyScenario.node[0].appl 	generatedBSMs 	5
scalar MyScenario.node[0].appl 	receivedBSMs 	13
scalar MyScenario.node[0].appl 	generatedWSAs 	0
scalar MyScenario.node[0].appl 	receivedWSAs 	0
scalar MyScenario.node[0].nic.phy80211p 	busyTime 	0.00026509803921569
scalar MyScenario.node[0].nic.mac1609_4 	ReceivedUnicastPackets 	0
scalar MyScenario.node[0].nic.mac1609_4 	ReceivedBroadcasts 	13
scalar MyScenario.node[0].nic.mac1609_4 	SentPackets 	5
scalar MyScenario.node[0].nic.mac1609_4 	SNIRLostPackets 	0
scalar MyScenario.node[0].nic.mac1609_4 	RXTXLostPackets 	0
scalar MyScenario.node[0].nic.mac1609_4 	TotalLostPackets 	0
scalar MyScenario.node[0].nic.mac1609_4 	DroppedPacketsInMac 	0
scalar MyScenario.node[0].nic.mac1609_4 	TooLittleTime 	0
scalar MyScenario.node[0].nic.mac1609_4 	TimesIntoBackoff 	5
scalar MyScenario.node[0].nic.mac1609_4 	SlotsBackoff 	7
scalar MyScenario.node[0].nic.mac1609_4 	NumInternalContention 	0
scalar MyScenario.node[0].nic.mac1609_4 	totalBusyTime 	0.001877
scalar MyScenario.node[0].veinsmobility 	startTime 	10800
scalar MyScenario.node[0].veinsmobility 	totalTime 	5
scalar MyScenario.node[0].veinsmobility 	stopTime 	10805.1
scalar MyScenario.node[0].veinsmobility 	minSpeed 	33.7333185055
scalar MyScenario.node[0].veinsmobility 	maxSpeed 	33.870399405987
scalar MyScenario.node[0].veinsmobility 	totalDistance 	168.85082875931
scalar MyScenario.node[0].veinsmobility 	totalCO2Emission 	31.608641935034
scalar MyScenario.node[1].appl 	generatedWSMs 	0
scalar MyScenario.node[1].appl 	receivedWSMs 	0
scalar MyScenario.node[1].appl 	generatedBSMs 	5
scalar MyScenario.node[1].appl 	receivedBSMs 	31
scalar MyScenario.node[1].appl 	generatedWSAs 	0
scalar MyScenario.node[1].appl 	receivedWSAs 	0
scalar MyScenario.node[1].nic.phy80211p 	busyTime 	0.00062
scalar MyScenario.node[1].nic.mac1609_4 	ReceivedUnicastPackets 	0
scalar MyScenario.node[1].nic.mac1609_4 	ReceivedBroadcasts 	31
scalar MyScenario.node[1].nic.mac1609_4 	SentPackets 	5
scalar MyScenario.node[1].nic.mac1609_4 	SNIRLostPackets 	0
scalar MyScenario.node[1].nic.mac1609_4 	RXTXLostPackets 	0
scalar MyScenario.node[1].nic.mac1609_4 	TotalLostPackets 	0
scalar MyScenario.node[1].nic.mac1609_4 	DroppedPacketsInMac 	0
scalar MyScenario.node[1].nic.mac1609_4 	TooLittleTime 	0
scalar MyScenario.node[1].nic.mac1609_4 	TimesIntoBackoff 	5
scalar MyScenario.node[1].nic.mac1609_4 	SlotsBackoff 	11
scalar MyScenario.node[1].nic.mac1609_4 	NumInternalContention 	0
scalar MyScenario.node[1].nic.mac1609_4 	totalBusyTime 	0.003749
scalar MyScenario.node[1].veinsmobility 	startTime 	10800
scalar MyScenario.node[1].veinsmobility 	totalTime 	5.1
scalar MyScenario.node[1].veinsmobility 	stopTime 	10805.2
scalar MyScenario.node[1].veinsmobility 	minSpeed 	29.822874160855
scalar MyScenario.node[1].veinsmobility 	maxSpeed 	30.048464985927
scalar MyScenario.node[1].veinsmobility 	totalDistance 	152.91732149455
scalar MyScenario.node[1].veinsmobility 	totalCO2Emission 	28.192536349901
scalar MyScenario.node[5].appl 	generatedWSMs 	0
scalar MyScenario.node[5].appl 	receivedWSMs 	0
scalar MyScenario.node[5].appl 	generatedBSMs 	8
scalar MyScenario.node[5].appl 	receivedBSMs 	45
scalar MyScenario.node[5].appl 	generatedWSAs 	0
scalar MyScenario.node[5].appl 	receivedWSAs 	0
scalar MyScenario.node[5].nic.phy80211p 	busyTime 	0.00059240506329114
scalar MyScenario.node[5].nic.mac1609_4 	ReceivedUnicastPackets 	0
scalar MyScenario.node[5].nic.mac1609_4 	ReceivedBroadcasts 	45
scalar MyScenario.node[5].nic.mac1609_4 	SentPackets 	8
scalar MyScenario.node[5].nic.mac1609_4 	SNIRLostPackets 	0
scalar MyScenario.node[5].nic.mac1609_4 	RXTXLostPackets 	0
scalar MyScenario.node[5].nic.mac1609_4 	TotalLostPackets 	0
scalar MyScenario.node[5].nic.mac1609_4 	DroppedPacketsInMac 	0
scalar MyScenario.node[5].nic.mac1609_4 	TooLittleTime 	0
scalar MyScenario.node[5].nic.mac1609_4 	TimesIntoBackoff 	8
scalar MyScenario.node[5].nic.mac1609_4 	SlotsBackoff 	8
scalar MyScenario.node[5].nic.mac1609_4 	NumInternalContention 	0
scalar MyScenario.node[5].nic.mac1609_4 	totalBusyTime 	0.00552
scalar MyScenario.node[5].veinsmobility 	startTime 	10800
scalar MyScenario.node[5].veinsmobility 	totalTime 	7.8
scalar MyScenario.node[5].veinsmobility 	stopTime 	10807.9
scalar MyScenario.node[5].veinsmobility 	minSpeed 	29.834673715774
scalar MyScenario.node[5].veinsmobility 	maxSpeed 	29.971319809687
scalar MyScenario.node[5].veinsmobility 	totalDistance 	233.2541795903
scalar MyScenario.node[5].veinsmobility 	totalCO2Emission 	39.507876950505
scalar MyScenario.node[2].appl 	generatedWSMs 	0
scalar MyScenario.node[2].appl 	receivedWSMs 	0
scalar MyScenario.node[2].appl 	generatedBSMs 	10
scalar MyScenario.node[2].appl 	receivedBSMs 	60
scalar MyScenario.node[2].appl 	generatedWSAs 	0
scalar MyScenario.node[2].appl 	receivedWSAs 	0
scalar MyScenario.node[2].nic.phy80211p 	busyTime 	0.00064329896907216
scalar MyScenario.node[2].nic.mac1609_4 	ReceivedUnicastPackets 	0
scalar MyScenario.node[2].nic.mac1609_4 	ReceivedBroadcasts 	60
scalar MyScenario.node[2].nic.mac1609_4 	SentPackets 	10
scalar MyScenario.node[2].nic.mac1609_4 	SNIRLostPackets 	0
scalar MyScenario.node[2].nic.mac1609_4 	RXTXLostPackets 	0
scalar MyScenario.node[2].nic.mac1609_4 	TotalLostPackets 	0
scalar MyScenario.node[2].nic.mac1609_4 	DroppedPacketsInMac 	0
scalar MyScenario.node[2].nic.mac1609_4 	TooLittleTime 	0
scalar MyScenario.node[2].nic.mac1609_4 	TimesIntoBackoff 	10
scalar MyScenario.node[2].nic.mac1609_4 	SlotsBackoff 	14
scalar MyScenario.node[2].nic.mac1609_4 	NumInternalContention 	0
scalar MyScenario.node[2].nic.mac1609_4 	totalBusyTime 	0.00729
scalar MyScenario.node[2].veinsmobility 	startTime 	10800
scalar MyScenario.node[2].veinsmobility 	totalTime 	9.6
scalar MyScenario.node[2].veinsmobility 	stopTime 	10809.7
scalar MyScenario.node[2].veinsmobility 	minSpeed 	32.155542813744
scalar MyScenario.node[2].veinsmobility 	maxSpeed 	36.908575708393
scalar MyScenario.node[2].veinsmobility 	totalDistance 	327.38796659248
scalar MyScenario.node[2].veinsmobility 	totalCO2Emission 	25.375754345648
scalar MyScenario.node[6].appl 	generatedWSMs 	0
scalar MyScenario.node[6].appl 	receivedWSMs 	0
scalar MyScenario.node[6].appl 	generatedBSMs 	10
scalar MyScenario.node[6].appl 	receivedBSMs 	63
scalar MyScenario.node[6].appl 	generatedWSAs 	0
scalar MyScenario.node[6].appl 	receivedWSAs 	0
scalar MyScenario.node[6].nic.phy80211p 	busyTime 	0.00064871287128713
scalar MyScenario.node[6].nic.mac1609_4 	ReceivedUnicastPackets 	0
scalar MyScenario.node[6].nic.mac1609_4 	ReceivedBroadcasts 	63
scalar MyScenario.node[6].nic.mac1609_4 	SentPackets 	10
scalar MyScenario.node[6].nic.mac1609_4 	SNIRLostPackets 	0
scalar MyScenario.node[6].nic.mac1609_4 	RXTXLostPackets 	0
scalar MyScenario.node[6].nic.mac1609_4 	TotalLostPackets 	0
scalar MyScenario.node[6].nic.mac1609_4 	DroppedPacketsInMac 	0
scalar MyScenario.node[6].nic.mac1609_4 	TooLittleTime 	0
scalar MyScenario.node[6].nic.mac1609_4 	TimesIntoBackoff 	10
scalar MyScenario.node[6].nic.mac1609_4 	SlotsBackoff 	17
scalar MyScenario.node[6].nic.mac1609_4 	NumInternalContention 	0
scalar MyScenario.node[6].nic.mac1609_4 	totalBusyTime 	0.007602
scalar MyScenario.node[6].veinsmobility 	startTime 	10800
scalar MyScenario.node[6].veinsmobility 	totalTime 	10
scalar MyScenario.node[6].veinsmobility 	stopTime 	10810.1
scalar MyScenario.node[6].veinsmobility 	minSpeed 	29.885078111406
scalar MyScenario.node[6].veinsmobility 	maxSpeed 	29.999941301438
scalar MyScenario.node[6].veinsmobility 	totalDistance 	299.73605528399
scalar MyScenario.node[6].veinsmobility 	totalCO2Emission 	50.913313838242
scalar MyScenario.node[7].appl 	generatedWSMs 	0
scalar MyScenario.node[7].appl 	receivedWSMs 	0
scalar MyScenario.node[7].appl 	generatedBSMs 	11
scalar MyScenario.node[7].appl 	receivedBSMs 	69
scalar MyScenario.node[7].appl 	generatedWSAs 	0
scalar MyScenario.node[7].appl 	receivedWSAs 	0
scalar MyScenario.node[7].nic.phy80211p 	busyTime 	0.00062947368421053
scalar MyScenario.node[7].nic.mac1609_4 	ReceivedUnicastPackets 	0
scalar MyScenario.node[7].nic.mac1609_4 	ReceivedBroadcasts 	69
scalar MyScenario.node[7].nic.mac1609_4 	SentPackets 	11
scalar MyScenario.node[7].nic.mac1609_4 	SNIRLostPackets 	0
scalar MyScenario.node[7].nic.mac1609_4 	RXTXLostPackets 	0
scalar MyScenario.node[7].nic.mac1609_4 	TotalLostPackets 	0
scalar MyScenario.node[7].nic.mac1609_4 	DroppedPacketsInMac 	0
scalar MyScenario.node[7].nic.mac1609_4 	TooLittleTime 	0
scalar MyScenario.node[7].nic.mac1609_4 	TimesIntoBackoff 	11
scalar MyScenario.node[7].nic.mac1609_4 	SlotsBackoff 	15
scalar MyScenario.node[7].nic.mac1609_4 	NumInternalContention 	0
scalar MyScenario.node[7].nic.mac1609_4 	totalBusyTime 	0.008331
scalar MyScenario.node[7].veinsmobility 	startTime 	10800
scalar MyScenario.node[7].veinsmobility 	totalTime 	11.3
scalar MyScenario.node[7].veinsmobility 	stopTime 	10811.4
scalar MyScenario.node[7].veinsmobility 	minSpeed 	29.825493266636
scalar MyScenario.node[7].veinsmobility 	maxSpeed 	30.069660385545
scalar MyScenario.node[7].veinsmobility 	totalDistance 	338.79330645413
scalar MyScenario.node[7].veinsmobility 	totalCO2Emission 	63.614262632779
scalar MyScenario.node[3].appl 	generatedWSMs 	0
scalar MyScenario.node[3].appl 	receivedWSMs 	0
scalar MyScenario.node[3].appl 	generatedBSMs 	11
scalar MyScenario.node[3].appl 	receivedBSMs 	63
scalar MyScenario.node[3].appl 	generatedWSAs 	0
scalar MyScenario.node[3].appl 	receivedWSAs 	0
scalar MyScenario.node[3].nic.phy80211p 	busyTime 	0.00056973913043478
scalar MyScenario.node[3].nic.mac1609_4 	ReceivedUnicastPackets 	0
scalar MyScenario.node[3].nic.mac1609_4 	ReceivedBroadcasts 	63
scalar MyScenario.node[3].nic.mac1609_4 	SentPackets 	11
scalar MyScenario.node[3].nic.mac1609_4 	SNIRLostPackets 	0
scalar MyScenario.node[3].nic.mac1609_4 	RXTXLostPackets 	0
scalar MyScenario.node[3].nic.mac1609_4 	TotalLostPackets 	0
scalar MyScenario.node[3].nic.mac1609_4 	DroppedPacketsInMac 	0
scalar MyScenario.node[3].nic.mac1609_4 	TooLittleTime 	0
scalar MyScenario.node[3].nic.mac1609_4 	TimesIntoBackoff 	11
scalar MyScenario.node[3].nic.mac1609_4 	SlotsBackoff 	18
scalar MyScenario.node[3].nic.mac1609_4 	NumInternalContention 	0
scalar MyScenario.node[3].nic.mac1609_4 	totalBusyTime 	0.007707
scalar MyScenario.node[3].veinsmobility 	startTime 	10800
scalar MyScenario.node[3].veinsmobility 	totalTime 	11.4
scalar MyScenario.node[3].veinsmobility 	stopTime 	10811.5
scalar MyScenario.node[3].veinsmobility 	minSpeed 	34.280655882449
scalar MyScenario.node[3].veinsmobility 	maxSpeed 	40.288151262874
scalar MyScenario.node[3].veinsmobility 	totalDistance 	431.01592407956
scalar MyScenario.node[3].veinsmobility 	totalCO2Emission 	48.484302611615
scalar MyScenario.node[8].appl 	generatedWSMs 	0
scalar MyScenario.node[8].appl 	receivedWSMs 	0
scalar MyScenario.node[8].appl 	generatedBSMs 	14
scalar MyScenario.node[8].appl 	receivedBSMs 	63
scalar MyScenario.node[8].appl 	generatedWSAs 	0
scalar MyScenario.node[8].appl 	receivedWSAs 	0
scalar MyScenario.node[8].nic.phy80211p 	busyTime 	0.000455
scalar MyScenario.node[8].nic.mac1609_4 	ReceivedUnicastPackets 	0
scalar MyScenario.node[8].nic.mac1609_4 	ReceivedBroadcasts 	63
scalar MyScenario.node[8].nic.mac1609_4 	SentPackets 	14
scalar MyScenario.node[8].nic.mac1609_4 	SNIRLostPackets 	0
scalar MyScenario.node[8].nic.mac1609_4 	RXTXLostPackets 	0
scalar MyScenario.node[8].nic.mac1609_4 	TotalLostPackets 	0
scalar MyScenario.node[8].nic.mac1609_4 	DroppedPacketsInMac 	0
scalar MyScenario.node[8].nic.mac1609_4 	TooLittleTime 	0
scalar MyScenario.node[8].nic.mac1609_4 	TimesIntoBackoff 	14
scalar MyScenario.node[8].nic.mac1609_4 	SlotsBackoff 	21
scalar MyScenario.node[8].nic.mac1609_4 	NumInternalContention 	0
scalar MyScenario.node[8].nic.mac1609_4 	totalBusyTime 	0.008022
scalar MyScenario.node[8].veinsmobility 	startTime 	10800
scalar MyScenario.node[8].veinsmobility 	totalTime 	14.3
scalar MyScenario.node[8].veinsmobility 	stopTime 	10814.4
scalar MyScenario.node[8].veinsmobility 	minSpeed 	35.387539768794
scalar MyScenario.node[8].veinsmobility 	maxSpeed 	35.988580862563
scalar MyScenario.node[8].veinsmobility 	totalDistance 	513.51615782099
scalar MyScenario.node[8].veinsmobility 	totalCO2Emission 	100.88023197242
scalar MyScenario.node[11].appl 	generatedWSMs 	0
scalar MyScenario.node[11].appl 	receivedWSMs 	0
scalar MyScenario.node[11].appl 	generatedBSMs 	26
scalar MyScenario.node[11].appl 	receivedBSMs 	69
scalar MyScenario.node[11].appl 	generatedWSAs 	0
scalar MyScenario.node[11].appl 	receivedWSAs 	0
scalar MyScenario.node[11].nic.phy80211p 	busyTime 	0.00027494252873563
scalar MyScenario.node[11].nic.mac1609_4 	ReceivedUnicastPackets 	0
scalar MyScenario.node[11].nic.mac1609_4 	ReceivedBroadcasts 	69
scalar MyScenario.node[11].nic.mac1609_4 	SentPackets 	26
scalar MyScenario.node[11].nic.mac1609_4 	SNIRLostPackets 	0
scalar MyScenario.node[11].nic.mac1609_4 	RXTXLostPackets 	0
scalar MyScenario.node[11].nic.mac1609_4 	TotalLostPackets 	0
scalar MyScenario.node[11].nic.mac1609_4 	DroppedPacketsInMac 	0
scalar MyScenario.node[11].nic.mac1609_4 	TooLittleTime 	0
scalar MyScenario.node[11].nic.mac1609_4 	TimesIntoBackoff 	26
scalar MyScenario.node[11].nic.mac1609_4 	SlotsBackoff 	39
scalar MyScenario.node[11].nic.mac1609_4 	NumInternalContention 	0
scalar MyScenario.node[11].nic.mac1609_4 	totalBusyTime 	0.009906
scalar MyScenario.node[11].veinsmobility 	startTime 	10805.1
scalar MyScenario.node[11].veinsmobility 	totalTime 	26
scalar MyScenario.node[11].veinsmobility 	stopTime 	10831.2
scalar MyScenario.node[11].veinsmobility 	minSpeed 	34.442677741357
scalar MyScenario.node[11].veinsmobility 	maxSpeed 	34.581339504122
scalar MyScenario.node[11].veinsmobility 	totalDistance 	898.32964193348
scalar MyScenario.node[11].veinsmobility 	totalCO2Emission 	173.567830435
scalar MyScenario.node[12].appl 	generatedWSMs 	0
scalar MyScenario.node[12].appl 	receivedWSMs 	0
scalar MyScenario.node[12].appl 	generatedBSMs 	26
scalar MyScenario.node[12].appl 	receivedBSMs 	64
scalar MyScenario.node[12].appl 	generatedWSAs 	0
scalar MyScenario.node[12].appl 	receivedWSAs 	0
scalar MyScenario.node[12].nic.phy80211p 	busyTime 	0.000256
scalar MyScenario.node[12].nic.mac1609_4 	ReceivedUnicastPackets 	0
scalar MyScenario.node[12].nic.mac1609_4 	ReceivedBroadcasts 	64
scalar MyScenario.node[12].nic.mac1609_4 	SentPackets 	26
scalar MyScenario.node[12].nic.mac1609_4 	SNIRLostPackets 	0
scalar MyScenario.node[12].nic.mac1609_4 	RXTXLostPackets 	0
scalar MyScenario.node[12].nic.mac1609_4 	TotalLostPackets 	0
scalar MyScenario.node[12].nic.mac1609_4 	DroppedPacketsInMac 	0
scalar MyScenario.node[12].nic.mac1609_4 	TooLittleTime 	0
scalar MyScenario.node[12].nic.mac1609_4 	TimesIntoBackoff 	26
scalar MyScenario.node[12].nic.mac1609_4 	SlotsBackoff 	52
scalar MyScenario.node[12].nic.mac1609_4 	NumInternalContention 	0
scalar MyScenario.node[12].nic.mac1609_4 	totalBusyTime 	0.009386
scalar MyScenario.node[12].veinsmobility 	startTime 	10806.4
scalar MyScenario.node[12].veinsmobility 	totalTime 	25.9
scalar MyScenario.node[12].veinsmobility 	stopTime 	10832.4
scalar MyScenario.node[12].veinsmobility 	minSpeed 	34.447817158498
scalar MyScenario.node[12].veinsmobility 	maxSpeed 	35.085239828525
scalar MyScenario.node[12].veinsmobility 	totalDistance 	899.12027975823
scalar MyScenario.node[12].veinsmobility 	totalCO2Emission 	175.80066823699
scalar MyScenario.node[13].appl 	generatedWSMs 	0
scalar MyScenario.node[13].appl 	receivedWSMs 	0
scalar MyScenario.node[13].appl 	generatedBSMs 	26
scalar MyScenario.node[13].appl 	receivedBSMs 	84
scalar MyScenario.node[13].appl 	generatedWSAs 	0
scalar MyScenario.node[13].appl 	receivedWSAs 	0
scalar MyScenario.node[13].nic.phy80211p 	busyTime 	0.00033471264367816
scalar MyScenario.node[13].nic.mac1609_4 	ReceivedUnicastPackets 	0
scalar MyScenario.node[13].nic.mac1609_4 	ReceivedBroadcasts 	84
scalar MyScenario.node[13].nic.mac1609_4 	SentPackets 	26
scalar MyScenario.node[13].nic.mac1609_4 	SNIRLostPackets 	0
scalar MyScenario.node[13].nic.mac1609_4 	RXTXLostPackets 	0
scalar MyScenario.node[13].nic.mac1609_4 	TotalLostPackets 	0
scalar MyScenario.node[13].nic.mac1609_4 	DroppedPacketsInMac 	0
scalar MyScenario.node[13].nic.mac1609_4 	TooLittleTime 	0
scalar MyScenario.node[13].nic.mac1609_4 	TimesIntoBackoff 	26
scalar MyScenario.node[13].nic.mac1609_4 	SlotsBackoff 	39
scalar MyScenario.node[13].nic.mac1609_4 	NumInternalContention 	0
scalar MyScenario.node[13].nic.mac1609_4 	totalBusyTime 	0.011466
scalar MyScenario.node[13].veinsmobility 	startTime 	10814.9
scalar MyScenario.node[13].veinsmobility 	totalTime 	26
scalar MyScenario.node[13].veinsmobility 	stopTime 	10841
scalar MyScenario.node[13].veinsmobility 	minSpeed 	34.566955378019
scalar MyScenario.node[13].veinsmobility 	maxSpeed 	34.706002742313
scalar MyScenario.node[13].veinsmobility 	totalDistance 	900.58432163065
scalar MyScenario.node[13].veinsmobility 	totalCO2Emission 	173.16122230043
scalar MyScenario.node[16].appl 	generatedWSMs 	0
scalar MyScenario.node[16].appl 	receivedWSMs 	0
scalar MyScenario.node[16].appl 	generatedBSMs 	30
scalar MyScenario.node[16].appl 	receivedBSMs 	156
scalar MyScenario.node[16].appl 	generatedWSAs 	0
scalar MyScenario.node[16].appl 	receivedWSAs 	0
scalar MyScenario.node[16].nic.phy80211p 	busyTime 	0.00053721854304632
scalar MyScenario.node[16].nic.mac1609_4 	ReceivedUnicastPackets 	0
scalar MyScenario.node[16].nic.mac1609_4 	ReceivedBroadcasts 	156
scalar MyScenario.node[16].nic.mac1609_4 	SentPackets 	30
scalar MyScenario.node[16].nic.mac1609_4 	SNIRLostPackets 	0
scalar MyScenario.node[16].nic.mac1609_4 	RXTXLostPackets 	0
scalar MyScenario.node[16].nic.mac1609_4 	TotalLostPackets 	0
scalar MyScenario.node[16].nic.mac1609_4 	DroppedPacketsInMac 	0
scalar MyScenario.node[16].nic.mac1609_4 	TooLittleTime 	0
scalar MyScenario.node[16].nic.mac1609_4 	TimesIntoBackoff 	30
scalar MyScenario.node[16].nic.mac1609_4 	SlotsBackoff 	46
scalar MyScenario.node[16].nic.mac1609_4 	NumInternalContention 	0
scalar MyScenario.node[16].nic.mac1609_4 	totalBusyTime 	0.019374
scalar MyScenario.node[16].veinsmobility 	startTime 	10821.7
scalar MyScenario.node[16].veinsmobility 	totalTime 	30.1
scalar MyScenario.node[16].veinsmobility 	stopTime 	10851.9
scalar MyScenario.node[16].veinsmobility 	minSpeed 	29.880142476987
scalar MyScenario.node[16].veinsmobility 	maxSpeed 	29.999129732195
scalar MyScenario.node[16].veinsmobility 	totalDistance 	901.21480542845
scalar MyScenario.node[16].veinsmobility 	totalCO2Emission 	153.71241217837
scalar MyScenario.node[15].appl 	generatedWSMs 	0
scalar MyScenario.node[15].appl 	receivedWSMs 	0
scalar MyScenario.node[15].appl 	generatedBSMs 	33
scalar MyScenario.node[15].appl 	receivedBSMs 	179
scalar MyScenario.node[15].appl 	generatedWSAs 	0
scalar MyScenario.node[15].appl 	receivedWSAs 	0
scalar MyScenario.node[15].nic.phy80211p 	busyTime 	0.0005658358662614
scalar MyScenario.node[15].nic.mac1609_4 	ReceivedUnicastPackets 	0
scalar MyScenario.node[15].nic.mac1609_4 	ReceivedBroadcasts 	179
scalar MyScenario.node[15].nic.mac1609_4 	SentPackets 	33
scalar MyScenario.node[15].nic.mac1609_4 	SNIRLostPackets 	0
scalar MyScenario.node[15].nic.mac1609_4 	RXTXLostPackets 	0
scalar MyScenario.node[15].nic.mac1609_4 	TotalLostPackets 	0
scalar MyScenario.node[15].nic.mac1609_4 	DroppedPacketsInMac 	0
scalar MyScenario.node[15].nic.mac1609_4 	TooLittleTime 	0
scalar MyScenario.node[15].nic.mac1609_4 	TimesIntoBackoff 	33
scalar MyScenario.node[15].nic.mac1609_4 	SlotsBackoff 	56
scalar MyScenario.node[15].nic.mac1609_4 	NumInternalContention 	0
scalar MyScenario.node[15].nic.mac1609_4 	totalBusyTime 	0.022081
scalar MyScenario.node[15].veinsmobility 	startTime 	10821.3
scalar MyScenario.node[15].veinsmobility 	totalTime 	32.8
scalar MyScenario.node[15].veinsmobility 	stopTime 	10854.2
scalar MyScenario.node[15].veinsmobility 	minSpeed 	27.44940282539
scalar MyScenario.node[15].veinsmobility 	maxSpeed 	27.598594158232
scalar MyScenario.node[15].veinsmobility 	totalDistance 	901.88595696779
scalar MyScenario.node[15].veinsmobility 	totalCO2Emission 	155.10414217404
scalar MyScenario.node[20].appl 	generatedWSMs 	0
scalar MyScenario.node[20].appl 	receivedWSMs 	0
scalar MyScenario.node[20].appl 	generatedBSMs 	21
scalar MyScenario.node[20].appl 	receivedBSMs 	106
scalar MyScenario.node[20].appl 	generatedWSAs 	0
scalar MyScenario.node[20].appl 	receivedWSAs 	0
scalar MyScenario.node[20].nic.phy80211p 	busyTime 	0.00051037037037032
scalar MyScenario.node[20].nic.mac1609_4 	ReceivedUnicastPackets 	0
scalar MyScenario.node[20].nic.mac1609_4 	ReceivedBroadcasts 	106
scalar MyScenario.node[20].nic.mac1609_4 	SentPackets 	21
scalar MyScenario.node[20].nic.mac1609_4 	SNIRLostPackets 	0
scalar MyScenario.node[20].nic.mac1609_4 	RXTXLostPackets 	0
scalar MyScenario.node[20].nic.mac1609_4 	TotalLostPackets 	0
scalar MyScenario.node[20].nic.mac1609_4 	DroppedPacketsInMac 	0
scalar MyScenario.node[20].nic.mac1609_4 	TooLittleTime 	0
scalar MyScenario.node[20].nic.mac1609_4 	TimesIntoBackoff 	21
scalar MyScenario.node[20].nic.mac1609_4 	SlotsBackoff 	33
scalar MyScenario.node[20].nic.mac1609_4 	NumInternalContention 	0
scalar MyScenario.node[20].nic.mac1609_4 	totalBusyTime 	0.013229
scalar MyScenario.node[20].veinsmobility 	startTime 	10833.7
scalar MyScenario.node[20].veinsmobility 	totalTime 	21.5
scalar MyScenario.node[20].veinsmobility 	stopTime 	10855.3
scalar MyScenario.node[20].veinsmobility 	minSpeed 	41.837901897341
scalar MyScenario.node[20].veinsmobility 	maxSpeed 	41.976780723593
scalar MyScenario.node[20].veinsmobility 	totalDistance 	901.99443601412
scalar MyScenario.node[20].veinsmobility 	totalCO2Emission 	212.70727932166
scalar MyScenario.node[17].appl 	generatedWSMs 	0
scalar MyScenario.node[17].appl 	receivedWSMs 	0
scalar MyScenario.node[17].appl 	generatedBSMs 	28
scalar MyScenario.node[17].appl 	receivedBSMs 	167
scalar MyScenario.node[17].appl 	generatedWSAs 	0
scalar MyScenario.node[17].appl 	receivedWSAs 	0
scalar MyScenario.node[17].nic.phy80211p 	busyTime 	0.00062250896057348
scalar MyScenario.node[17].nic.mac1609_4 	ReceivedUnicastPackets 	0
scalar MyScenario.node[17].nic.mac1609_4 	ReceivedBroadcasts 	167
scalar MyScenario.node[17].nic.mac1609_4 	SentPackets 	28
scalar MyScenario.node[17].nic.mac1609_4 	SNIRLostPackets 	0
scalar MyScenario.node[17].nic.mac1609_4 	RXTXLostPackets 	0
scalar MyScenario.node[17].nic.mac1609_4 	TotalLostPackets 	0
scalar MyScenario.node[17].nic.mac1609_4 	DroppedPacketsInMac 	0
scalar MyScenario.node[17].nic.mac1609_4 	TooLittleTime 	0
scalar MyScenario.node[17].nic.mac1609_4 	TimesIntoBackoff 	28
scalar MyScenario.node[17].nic.mac1609_4 	SlotsBackoff 	42
scalar MyScenario.node[17].nic.mac1609_4 	NumInternalContention 	0
scalar MyScenario.node[17].nic.mac1609_4 	totalBusyTime 	0.020308
scalar MyScenario.node[17].veinsmobility 	startTime 	10828.1
scalar MyScenario.node[17].veinsmobility 	totalTime 	27.8
scalar MyScenario.node[17].veinsmobility 	stopTime 	10856
scalar MyScenario.node[17].veinsmobility 	minSpeed 	29.496060480482
scalar MyScenario.node[17].veinsmobility 	maxSpeed 	33.164284428122
scalar MyScenario.node[17].veinsmobility 	totalDistance 	902.54557568686
scalar MyScenario.node[17].veinsmobility 	totalCO2Emission 	148.75895579007
scalar MyScenario.node[21].appl 	generatedWSMs 	0
scalar MyScenario.node[21].appl 	receivedWSMs 	0
scalar MyScenario.node[21].appl 	generatedBSMs 	25
scalar MyScenario.node[21].appl 	receivedBSMs 	168
scalar MyScenario.node[21].appl 	generatedWSAs 	0
scalar MyScenario.node[21].appl 	receivedWSAs 	0
scalar MyScenario.node[21].nic.phy80211p 	busyTime 	0.00070168674698795
scalar MyScenario.node[21].nic.mac1609_4 	ReceivedUnicastPackets 	0
scalar MyScenario.node[21].nic.mac1609_4 	ReceivedBroadcasts 	168
scalar MyScenario.node[21].nic.mac1609_4 	SentPackets 	25
scalar MyScenario.node[21].nic.mac1609_4 	SNIRLostPackets 	0
scalar MyScenario.node[21].nic.mac1609_4 	RXTXLostPackets 	0
scalar MyScenario.node[21].nic.mac1609_4 	TotalLostPackets 	0
scalar MyScenario.node[21].nic.mac1609_4 	DroppedPacketsInMac 	0
scalar MyScenario.node[21].nic.mac1609_4 	TooLittleTime 	0
scalar MyScenario.node[21].nic.mac1609_4 	TimesIntoBackoff 	25
scalar MyScenario.node[21].nic.mac1609_4 	SlotsBackoff 	39
scalar MyScenario.node[21].nic.mac1609_4 	NumInternalContention 	0
scalar MyScenario.node[21].nic.mac1609_4 	totalBusyTime 	0.020097
scalar MyScenario.node[21].veinsmobility 	startTime 	10835
scalar MyScenario.node[21].veinsmobility 	totalTime 	24.8
scalar MyScenario.node[21].veinsmobility 	stopTime 	10859.9
scalar MyScenario.node[21].veinsmobility 	minSpeed 	36.153726845334
scalar MyScenario.node[21].veinsmobility 	maxSpeed 	36.29349949097
scalar MyScenario.node[21].veinsmobility 	totalDistance 	897.23066334309
scalar MyScenario.node[21].veinsmobility 	totalCO2Emission 	179.23140753673
scalar MyScenario.node[22].appl 	generatedWSMs 	0
scalar MyScenario.node[22].appl 	receivedWSMs 	0
scalar MyScenario.node[22].appl 	generatedBSMs 	25
scalar MyScenario.node[22].appl 	receivedBSMs 	156
scalar MyScenario.node[22].appl 	generatedWSAs 	0
scalar MyScenario.node[22].appl 	receivedWSAs 	0
scalar MyScenario.node[22].nic.phy80211p 	busyTime 	0.00064896
scalar MyScenario.node[22].nic.mac1609_4 	ReceivedUnicastPackets 	0
scalar MyScenario.node[22].nic.mac1609_4 	ReceivedBroadcasts 	156
scalar MyScenario.node[22].nic.mac1609_4 	SentPackets 	25
scalar MyScenario.node[22].nic.mac1609_4 	SNIRLostPackets 	0
scalar MyScenario.node[22].nic.mac1609_4 	RXTXLostPackets 	0
scalar MyScenario.node[22].nic.mac1609_4 	TotalLostPackets 	0
scalar MyScenario.node[22].nic.mac1609_4 	DroppedPacketsInMac 	0
scalar MyScenario.node[22].nic.mac1609_4 	TooLittleTime 	0
scalar MyScenario.node[22].nic.mac1609_4 	TimesIntoBackoff 	25
scalar MyScenario.node[22].nic.mac1609_4 	SlotsBackoff 	41
scalar MyScenario.node[22].nic.mac1609_4 	NumInternalContention 	0
scalar MyScenario.node[22].nic.mac1609_4 	totalBusyTime 	0.018849
scalar MyScenario.node[22].veinsmobility 	startTime 	10836.1
scalar MyScenario.node[22].veinsmobility 	totalTime 	24.9
scalar MyScenario.node[22].veinsmobility 	stopTime 	10861.1
scalar MyScenario.node[22].veinsmobility 	minSpeed 	36.111605886866
scalar MyScenario.node[22].veinsmobility 	maxSpeed 	36.341658899857
scalar MyScenario.node[22].veinsmobility 	totalDistance 	900.86914187343
scalar MyScenario.node[22].veinsmobility 	totalCO2Emission 	188.27825982647
scalar MyScenario.node[19].appl 	generatedWSMs 	0
scalar MyScenario.node[19].appl 	receivedWSMs 	0
scalar MyScenario.node[19].appl 	generatedBSMs 	28
scalar MyScenario.node[19].appl 	receivedBSMs 	140
scalar MyScenario.node[19].appl 	generatedWSAs 	0
scalar MyScenario.node[19].appl 	receivedWSAs 	0
scalar MyScenario.node[19].nic.phy80211p 	busyTime 	0.00050909090909091
scalar MyScenario.node[19].nic.mac1609_4 	ReceivedUnicastPackets 	0
scalar MyScenario.node[19].nic.mac1609_4 	ReceivedBroadcasts 	140
scalar MyScenario.node[19].nic.mac1609_4 	SentPackets 	28
scalar MyScenario.node[19].nic.mac1609_4 	SNIRLostPackets 	0
scalar MyScenario.node[19].nic.mac1609_4 	RXTXLostPackets 	0
scalar MyScenario.node[19].nic.mac1609_4 	TotalLostPackets 	0
scalar MyScenario.node[19].nic.mac1609_4 	DroppedPacketsInMac 	0
scalar MyScenario.node[19].nic.mac1609_4 	TooLittleTime 	0
scalar MyScenario.node[19].nic.mac1609_4 	TimesIntoBackoff 	28
scalar MyScenario.node[19].nic.mac1609_4 	SlotsBackoff 	49
scalar MyScenario.node[19].nic.mac1609_4 	NumInternalContention 	0
scalar MyScenario.node[19].nic.mac1609_4 	totalBusyTime 	0.0175
scalar MyScenario.node[19].veinsmobility 	startTime 	10833
scalar MyScenario.node[19].veinsmobility 	totalTime 	28.5
scalar MyScenario.node[19].veinsmobility 	stopTime 	10861.6
scalar MyScenario.node[19].veinsmobility 	minSpeed 	31.607244209041
scalar MyScenario.node[19].veinsmobility 	maxSpeed 	31.734567987899
scalar MyScenario.node[19].veinsmobility 	totalDistance 	901.60315794452
scalar MyScenario.node[19].veinsmobility 	totalCO2Emission 	161.85619457459
scalar MyScenario.node[23].appl 	generatedWSMs 	0
scalar MyScenario.node[23].appl 	receivedWSMs 	0
scalar MyScenario.node[23].appl 	generatedBSMs 	25
scalar MyScenario.node[23].appl 	receivedBSMs 	145
scalar MyScenario.node[23].appl 	generatedWSAs 	0
scalar MyScenario.node[23].appl 	receivedWSAs 	0
scalar MyScenario.node[23].nic.phy80211p 	busyTime 	0.00060562248995984
scalar MyScenario.node[23].nic.mac1609_4 	ReceivedUnicastPackets 	0
scalar MyScenario.node[23].nic.mac1609_4 	ReceivedBroadcasts 	145
scalar MyScenario.node[23].nic.mac1609_4 	SentPackets 	25
scalar MyScenario.node[23].nic.mac1609_4 	SNIRLostPackets 	0
scalar MyScenario.node[23].nic.mac1609_4 	RXTXLostPackets 	0
scalar MyScenario.node[23].nic.mac1609_4 	TotalLostPackets 	0
scalar MyScenario.node[23].nic.mac1609_4 	DroppedPacketsInMac 	0
scalar MyScenario.node[23].nic.mac1609_4 	TooLittleTime 	0
scalar MyScenario.node[23].nic.mac1609_4 	TimesIntoBackoff 	25
scalar MyScenario.node[23].nic.mac1609_4 	SlotsBackoff 	35
scalar MyScenario.node[23].nic.mac1609_4 	NumInternalContention 	0
scalar MyScenario.node[23].nic.mac1609_4 	totalBusyTime 	0.017705
scalar MyScenario.node[23].veinsmobility 	startTime 	10837.4
scalar MyScenario.node[23].veinsmobility 	totalTime 	24.8
scalar MyScenario.node[23].veinsmobility 	stopTime 	10862.3
scalar MyScenario.node[23].veinsmobility 	minSpeed 	36.092552672485
scalar MyScenario.node[23].veinsmobility 	maxSpeed 	36.554322964142
scalar MyScenario.node[23].veinsmobility 	totalDistance 	899.58335308963
scalar MyScenario.node[23].veinsmobility 	totalCO2Emission 	198.24889888233
scalar MyScenario.node[24].appl 	generatedWSMs 	0
scalar MyScenario.node[24].appl 	receivedWSMs 	0
scalar MyScenario.node[24].appl 	generatedBSMs 	30
scalar MyScenario.node[24].appl 	receivedBSMs 	158
scalar MyScenario.node[24].appl 	generatedWSAs 	0
scalar MyScenario.node[24].appl 	receivedWSAs 	0
scalar MyScenario.node[24].nic.phy80211p 	busyTime 	0.00054410596026486
scalar MyScenario.node[24].nic.mac1609_4 	ReceivedUnicastPackets 	0
scalar MyScenario.node[24].nic.mac1609_4 	ReceivedBroadcasts 	158
scalar MyScenario.node[24].nic.mac1609_4 	SentPackets 	30
scalar MyScenario.node[24].nic.mac1609_4 	SNIRLostPackets 	0
scalar MyScenario.node[24].nic.mac1609_4 	RXTXLostPackets 	0
scalar MyScenario.node[24].nic.mac1609_4 	TotalLostPackets 	0
scalar MyScenario.node[24].nic.mac1609_4 	DroppedPacketsInMac 	0
scalar MyScenario.node[24].nic.mac1609_4 	TooLittleTime 	0
scalar MyScenario.node[24].nic.mac1609_4 	TimesIntoBackoff 	30
scalar MyScenario.node[24].nic.mac1609_4 	SlotsBackoff 	44
scalar MyScenario.node[24].nic.mac1609_4 	NumInternalContention 	0
scalar MyScenario.node[24].nic.mac1609_4 	totalBusyTime 	0.019582
scalar MyScenario.node[24].veinsmobility 	startTime 	10844.2
scalar MyScenario.node[24].veinsmobility 	totalTime 	30.1
scalar MyScenario.node[24].veinsmobility 	stopTime 	10874.4
scalar MyScenario.node[24].veinsmobility 	minSpeed 	29.885057185531
scalar MyScenario.node[24].veinsmobility 	maxSpeed 	29.999779436996
scalar MyScenario.node[24].veinsmobility 	totalDistance 	902.18232302869
scalar MyScenario.node[24].veinsmobility 	totalCO2Emission 	153.32454907373
scalar MyScenario.node[25].appl 	generatedWSMs 	0
scalar MyScenario.node[25].appl 	receivedWSMs 	0
scalar MyScenario.node[25].appl 	generatedBSMs 	30
scalar MyScenario.node[25].appl 	receivedBSMs 	138
scalar MyScenario.node[25].appl 	generatedWSAs 	0
scalar MyScenario.node[25].appl 	receivedWSAs 	0
scalar MyScenario.node[25].nic.phy80211p 	busyTime 	0.00047523178807947
scalar MyScenario.node[25].nic.mac1609_4 	ReceivedUnicastPackets 	0
scalar MyScenario.node[25].nic.mac1609_4 	ReceivedBroadcasts 	138
scalar MyScenario.node[25].nic.mac1609_4 	SentPackets 	30
scalar MyScenario.node[25].nic.mac1609_4 	SNIRLostPackets 	0
scalar MyScenario.node[25].nic.mac1609_4 	RXTXLostPackets 	0
scalar MyScenario.node[25].nic.mac1609_4 	TotalLostPackets 	0
scalar MyScenario.node[25].nic.mac1609_4 	DroppedPacketsInMac 	0
scalar MyScenario.node[25].nic.mac1609_4 	TooLittleTime 	0
scalar MyScenario.node[25].nic.mac1609_4 	TimesIntoBackoff 	30
scalar MyScenario.node[25].nic.mac1609_4 	SlotsBackoff 	33
scalar MyScenario.node[25].nic.mac1609_4 	NumInternalContention 	0
scalar MyScenario.node[25].nic.mac1609_4 	totalBusyTime 	0.017502
scalar MyScenario.node[25].veinsmobility 	startTime 	10845.5
scalar MyScenario.node[25].veinsmobility 	totalTime 	30.1
scalar MyScenario.node[25].veinsmobility 	stopTime 	10875.7
scalar MyScenario.node[25].veinsmobility 	minSpeed 	29.836141368513
scalar MyScenario.node[25].veinsmobility 	maxSpeed 	30.109691281065
scalar MyScenario.node[25].veinsmobility 	totalDistance 	902.93032442338
scalar MyScenario.node[25].veinsmobility 	totalCO2Emission 	167.58078892075
scalar MyScenario.node[27].appl 	generatedWSMs 	0
scalar MyScenario.node[27].appl 	receivedWSMs 	0
scalar MyScenario.node[27].appl 	generatedBSMs 	23
scalar MyScenario.node[27].appl 	receivedBSMs 	98
scalar MyScenario.node[27].appl 	generatedWSAs 	0
scalar MyScenario.node[27].appl 	receivedWSAs 	0
scalar MyScenario.node[27].nic.phy80211p 	busyTime 	0.00043555555555556
scalar MyScenario.node[27].nic.mac1609_4 	ReceivedUnicastPackets 	0
scalar MyScenario.node[27].nic.mac1609_4 	ReceivedBroadcasts 	98
scalar MyScenario.node[27].nic.mac1609_4 	SentPackets 	23
scalar MyScenario.node[27].nic.mac1609_4 	SNIRLostPackets 	0
scalar MyScenario.node[27].nic.mac1609_4 	RXTXLostPackets 	0
scalar MyScenario.node[27].nic.mac1609_4 	TotalLostPackets 	0
scalar MyScenario.node[27].nic.mac1609_4 	DroppedPacketsInMac 	0
scalar MyScenario.node[27].nic.mac1609_4 	TooLittleTime 	0
scalar MyScenario.node[27].nic.mac1609_4 	TimesIntoBackoff 	23
scalar MyScenario.node[27].nic.mac1609_4 	SlotsBackoff 	41
scalar MyScenario.node[27].nic.mac1609_4 	NumInternalContention 	0
scalar MyScenario.node[27].nic.mac1609_4 	totalBusyTime 	0.012607
scalar MyScenario.node[27].veinsmobility 	startTime 	10856.9
scalar MyScenario.node[27].veinsmobility 	totalTime 	23.3
scalar MyScenario.node[27].veinsmobility 	stopTime 	10880.3
scalar MyScenario.node[27].veinsmobility 	minSpeed 	38.59184088017
scalar MyScenario.node[27].veinsmobility 	maxSpeed 	38.726011247902
scalar MyScenario.node[27].veinsmobility 	totalDistance 	900.7793898019
scalar MyScenario.node[27].veinsmobility 	totalCO2Emission 	192.4662417145
scalar MyScenario.node[26].appl 	generatedWSMs 	0
scalar MyScenario.node[26].appl 	receivedWSMs 	0
scalar MyScenario.node[26].appl 	generatedBSMs 	26
scalar MyScenario.node[26].appl 	receivedBSMs 	97
scalar MyScenario.node[26].appl 	generatedWSAs 	0
scalar MyScenario.node[26].appl 	receivedWSAs 	0
scalar MyScenario.node[26].nic.phy80211p 	busyTime 	0.00038949806949807
scalar MyScenario.node[26].nic.mac1609_4 	ReceivedUnicastPackets 	0
scalar MyScenario.node[26].nic.mac1609_4 	ReceivedBroadcasts 	97
scalar MyScenario.node[26].nic.mac1609_4 	SentPackets 	26
scalar MyScenario.node[26].nic.mac1609_4 	SNIRLostPackets 	0
scalar MyScenario.node[26].nic.mac1609_4 	RXTXLostPackets 	0
scalar MyScenario.node[26].nic.mac1609_4 	TotalLostPackets 	0
scalar MyScenario.node[26].nic.mac1609_4 	DroppedPacketsInMac 	0
scalar MyScenario.node[26].nic.mac1609_4 	TooLittleTime 	0
scalar MyScenario.node[26].nic.mac1609_4 	TimesIntoBackoff 	26
scalar MyScenario.node[26].nic.mac1609_4 	SlotsBackoff 	42
scalar MyScenario.node[26].nic.mac1609_4 	NumInternalContention 	0
scalar MyScenario.node[26].nic.mac1609_4 	totalBusyTime 	0.012818
scalar MyScenario.node[26].veinsmobility 	startTime 	10855.4
scalar MyScenario.node[26].veinsmobility 	totalTime 	25.8
scalar MyScenario.node[26].veinsmobility 	stopTime 	10881.3
scalar MyScenario.node[26].veinsmobility 	minSpeed 	34.860579556155
scalar MyScenario.node[26].veinsmobility 	maxSpeed 	34.999598274667
scalar MyScenario.node[26].veinsmobility 	totalDistance 	900.04305138634
scalar MyScenario.node[26].veinsmobility 	totalCO2Emission 	175.13148249151
scalar MyScenario.node[28].appl 	generatedWSMs 	0
scalar MyScenario.node[28].appl 	receivedWSMs 	0
scalar MyScenario.node[28].appl 	generatedBSMs 	23
scalar MyScenario.node[28].appl 	receivedBSMs 	94
scalar MyScenario.node[28].appl 	generatedWSAs 	0
scalar MyScenario.node[28].appl 	receivedWSAs 	0
scalar MyScenario.node[28].nic.phy80211p 	busyTime 	0.00041075630252101
scalar MyScenario.node[28].nic.mac1609_4 	ReceivedUnicastPackets 	0
scalar MyScenario.node[28].nic.mac1609_4 	ReceivedBroadcasts 	94
scalar MyScenario.node[28].nic.mac1609_4 	SentPackets 	23
scalar MyScenario.node[28].nic.mac1609_4 	SNIRLostPackets 	0
scalar MyScenario.node[28].nic.mac1609_4 	RXTXLostPackets 	0
scalar MyScenario.node[28].nic.mac1609_4 	TotalLostPackets 	0
scalar MyScenario.node[28].nic.mac1609_4 	DroppedPacketsInMac 	0
scalar MyScenario.node[28].nic.mac1609_4 	TooLittleTime 	0
scalar MyScenario.node[28].nic.mac1609_4 	TimesIntoBackoff 	23
scalar MyScenario.node[28].nic.mac1609_4 	SlotsBackoff 	29
scalar MyScenario.node[28].nic.mac1609_4 	NumInternalContention 	0
scalar MyScenario.node[28].nic.mac1609_4 	totalBusyTime 	0.012191
scalar MyScenario.node[28].veinsmobility 	startTime 	10859.5
scalar MyScenario.node[28].veinsmobility 	totalTime 	23.7
scalar MyScenario.node[28].veinsmobility 	stopTime 	10883.3
scalar MyScenario.node[28].veinsmobility 	minSpeed 	38.01081624634
scalar MyScenario.node[28].veinsmobility 	maxSpeed 	38.139313427965
scalar MyScenario.node[28].veinsmobility 	totalDistance 	901.34836604167
scalar MyScenario.node[28].veinsmobility 	totalCO2Emission 	189.7256240797
scalar MyScenario.node[29].appl 	generatedWSMs 	0
scalar MyScenario.node[29].appl 	receivedWSMs 	0
scalar MyScenario.node[29].appl 	generatedBSMs 	28
scalar MyScenario.node[29].appl 	receivedBSMs 	97
scalar MyScenario.node[29].appl 	generatedWSAs 	0
scalar MyScenario.node[29].appl 	receivedWSAs 	0
scalar MyScenario.node[29].nic.phy80211p 	busyTime 	0.00036550724637681
scalar MyScenario.node[29].nic.mac1609_4 	ReceivedUnicastPackets 	0
scalar MyScenario.node[29].nic.mac1609_4 	ReceivedBroadcasts 	97
scalar MyScenario.node[29].nic.mac1609_4 	SentPackets 	28
scalar MyScenario.node[29].nic.mac1609_4 	SNIRLostPackets 	0
scalar MyScenario.node[29].nic.mac1609_4 	RXTXLostPackets 	0
scalar MyScenario.node[29].nic.mac1609_4 	TotalLostPackets 	0
scalar MyScenario.node[29].nic.mac1609_4 	DroppedPacketsInMac 	0
scalar MyScenario.node[29].nic.mac1609_4 	TooLittleTime 	0
scalar MyScenario.node[29].nic.mac1609_4 	TimesIntoBackoff 	28
scalar MyScenario.node[29].nic.mac1609_4 	SlotsBackoff 	41
scalar MyScenario.node[29].nic.mac1609_4 	NumInternalContention 	0
scalar MyScenario.node[29].nic.mac1609_4 	totalBusyTime 	0.013028
scalar MyScenario.node[29].veinsmobility 	startTime 	10863.9
scalar MyScenario.node[29].veinsmobility 	totalTime 	27.5
scalar MyScenario.node[29].veinsmobility 	stopTime 	10891.5
scalar MyScenario.node[29].veinsmobility 	minSpeed 	32.611757605667
scalar MyScenario.node[29].veinsmobility 	maxSpeed 	32.749826636645
scalar MyScenario.node[29].veinsmobility 	totalDistance 	899.71450722456
scalar MyScenario.node[29].veinsmobility 	totalCO2Emission 	164.71159624019
scalar MyScenario.node[30].appl 	generatedWSMs 	0
scalar MyScenario.node[30].appl 	receivedWSMs 	0
scalar MyScenario.node[30].appl 	generatedBSMs 	27
scalar MyScenario.node[30].appl 	receivedBSMs 	95
scalar MyScenario.node[30].appl 	generatedWSAs 	0
scalar MyScenario.node[30].appl 	receivedWSAs 	0
scalar MyScenario.node[30].nic.phy80211p 	busyTime 	0.00036190476190476
scalar MyScenario.node[30].nic.mac1609_4 	ReceivedUnicastPackets 	0
scalar MyScenario.node[30].nic.mac1609_4 	ReceivedBroadcasts 	95
scalar MyScenario.node[30].nic.mac1609_4 	SentPackets 	27
scalar MyScenario.node[30].nic.mac1609_4 	SNIRLostPackets 	0
scalar MyScenario.node[30].nic.mac1609_4 	RXTXLostPackets 	0
scalar MyScenario.node[30].nic.mac1609_4 	TotalLostPackets 	0
scalar MyScenario.node[30].nic.mac1609_4 	DroppedPacketsInMac 	0
scalar MyScenario.node[30].nic.mac1609_4 	TooLittleTime 	0
scalar MyScenario.node[30].nic.mac1609_4 	TimesIntoBackoff 	27
scalar MyScenario.node[30].nic.mac1609_4 	SlotsBackoff 	43
scalar MyScenario.node[30].nic.mac1609_4 	NumInternalContention 	0
scalar MyScenario.node[30].nic.mac1609_4 	totalBusyTime 	0.012715
scalar MyScenario.node[30].veinsmobility 	startTime 	10870.6
scalar MyScenario.node[30].veinsmobility 	totalTime 	27.2
scalar MyScenario.node[30].veinsmobility 	stopTime 	10897.9
scalar MyScenario.node[30].veinsmobility 	minSpeed 	32.9862127027
scalar MyScenario.node[30].veinsmobility 	maxSpeed 	33.115153062149
scalar MyScenario.node[30].veinsmobility 	totalDistance 	898.981465717
scalar MyScenario.node[30].veinsmobility 	totalCO2Emission 	164.97279601394
scalar MyScenario.node[31].appl 	generatedWSMs 	0
scalar MyScenario.node[31].appl 	receivedWSMs 	0
scalar MyScenario.node[31].appl 	generatedBSMs 	23
scalar MyScenario.node[31].appl 	receivedBSMs 	5
scalar MyScenario.node[31].appl 	generatedWSAs 	0
scalar MyScenario.node[31].appl 	receivedWSAs 	0
scalar MyScenario.node[31].nic.phy80211p 	busyTime 	2.3111111111109e-05
scalar MyScenario.node[31].nic.mac1609_4 	ReceivedUnicastPackets 	0
scalar MyScenario.node[31].nic.mac1609_4 	ReceivedBroadcasts 	5
scalar MyScenario.node[31].nic.mac1609_4 	SentPackets 	23
scalar MyScenario.node[31].nic.mac1609_4 	SNIRLostPackets 	0
scalar MyScenario.node[31].nic.mac1609_4 	RXTXLostPackets 	0
scalar MyScenario.node[31].nic.mac1609_4 	TotalLostPackets 	0
scalar MyScenario.node[31].nic.mac1609_4 	DroppedPacketsInMac 	0
scalar MyScenario.node[31].nic.mac1609_4 	TooLittleTime 	0
scalar MyScenario.node[31].nic.mac1609_4 	TimesIntoBackoff 	23
scalar MyScenario.node[31].nic.mac1609_4 	SlotsBackoff 	52
scalar MyScenario.node[31].nic.mac1609_4 	NumInternalContention 	0
scalar MyScenario.node[31].nic.mac1609_4 	totalBusyTime 	0.002935
scalar MyScenario.node[31].veinsmobility 	startTime 	10877.2
scalar MyScenario.node[31].veinsmobility 	totalTime 	22.4
scalar MyScenario.node[31].veinsmobility 	stopTime 	10899.7
scalar MyScenario.node[31].veinsmobility 	minSpeed 	3.3779871466649
scalar MyScenario.node[31].veinsmobility 	maxSpeed 	17.259950386267
scalar MyScenario.node[31].veinsmobility 	totalDistance 	300.5036535639
scalar MyScenario.node[31].veinsmobility 	totalCO2Emission 	69.980309456578
scalar MyScenario.node[36].appl 	generatedWSMs 	0
scalar MyScenario.node[36].appl 	receivedWSMs 	0
scalar MyScenario.node[36].appl 	generatedBSMs 	0
scalar MyScenario.node[36].appl 	receivedBSMs 	0
scalar MyScenario.node[36].appl 	generatedWSAs 	0
scalar MyScenario.node[36].appl 	receivedWSAs 	0
scalar MyScenario.node[36].nic.phy80211p 	busyTime 	0
scalar MyScenario.node[36].nic.mac1609_4 	ReceivedUnicastPackets 	0
scalar MyScenario.node[36].nic.mac1609_4 	ReceivedBroadcasts 	0
scalar MyScenario.node[36].nic.mac1609_4 	SentPackets 	0
scalar MyScenario.node[36].nic.mac1609_4 	SNIRLostPackets 	0
scalar MyScenario.node[36].nic.mac1609_4 	RXTXLostPackets 	0
scalar MyScenario.node[36].nic.mac1609_4 	TotalLostPackets 	0
scalar MyScenario.node[36].nic.mac1609_4 	DroppedPacketsInMac 	0
scalar MyScenario.node[36].nic.mac1609_4 	TooLittleTime 	0
scalar MyScenario.node[36].nic.mac1609_4 	TimesIntoBackoff 	0
scalar MyScenario.node[36].nic.mac1609_4 	SlotsBackoff 	0
scalar MyScenario.node[36].nic.mac1609_4 	NumInternalContention 	0
scalar MyScenario.node[36].nic.mac1609_4 	totalBusyTime 	0
scalar MyScenario.node[36].veinsmobility 	startTime 	10899.6
scalar MyScenario.node[36].veinsmobility 	totalTime 	0.4
scalar MyScenario.node[36].veinsmobility 	stopTime 	10900
scalar MyScenario.node[36].veinsmobility 	minSpeed 	36.880336407792
scalar MyScenario.node[36].veinsmobility 	maxSpeed 	36.997066355588
scalar MyScenario.node[36].veinsmobility 	totalDistance 	14.763238739789
scalar MyScenario.node[36].veinsmobility 	totalCO2Emission 	3.3092191457064
scalar MyScenario.node[33].appl 	generatedWSMs 	0
scalar MyScenario.node[33].appl 	receivedWSMs 	0
scalar MyScenario.node[33].appl 	generatedBSMs 	20
scalar MyScenario.node[33].appl 	receivedBSMs 	72
scalar MyScenario.node[33].appl 	generatedWSAs 	0
scalar MyScenario.node[33].appl 	receivedWSAs 	0
scalar MyScenario.node[33].nic.phy80211p 	busyTime 	0.00038150753768844
scalar MyScenario.node[33].nic.mac1609_4 	ReceivedUnicastPackets 	0
scalar MyScenario.node[33].nic.mac1609_4 	ReceivedBroadcasts 	72
scalar MyScenario.node[33].nic.mac1609_4 	SentPackets 	20
scalar MyScenario.node[33].nic.mac1609_4 	SNIRLostPackets 	1
scalar MyScenario.node[33].nic.mac1609_4 	RXTXLostPackets 	0
scalar MyScenario.node[33].nic.mac1609_4 	TotalLostPackets 	1
scalar MyScenario.node[33].nic.mac1609_4 	DroppedPacketsInMac 	0
scalar MyScenario.node[33].nic.mac1609_4 	TooLittleTime 	0
scalar MyScenario.node[33].nic.mac1609_4 	TimesIntoBackoff 	20
scalar MyScenario.node[33].nic.mac1609_4 	SlotsBackoff 	33
scalar MyScenario.node[33].nic.mac1609_4 	NumInternalContention 	0
scalar MyScenario.node[33].nic.mac1609_4 	totalBusyTime 	0.009692
scalar MyScenario.node[33].veinsmobility 	startTime 	10880.1
scalar MyScenario.node[33].veinsmobility 	totalTime 	19.9
scalar MyScenario.node[33].veinsmobility 	stopTime 	10900
scalar MyScenario.node[33].veinsmobility 	minSpeed 	36.873748714734
scalar MyScenario.node[33].veinsmobility 	maxSpeed 	36.999733912021
scalar MyScenario.node[33].veinsmobility 	totalDistance 	734.24845958881
scalar MyScenario.node[33].veinsmobility 	totalCO2Emission 	149.50089498328
scalar MyScenario.node[35].appl 	generatedWSMs 	0
scalar MyScenario.node[35].appl 	receivedWSMs 	0
scalar MyScenario.node[35].appl 	generatedBSMs 	17
scalar MyScenario.node[35].appl 	receivedBSMs 	65
scalar MyScenario.node[35].appl 	generatedWSAs 	0
scalar MyScenario.node[35].appl 	receivedWSAs 	0
scalar MyScenario.node[35].nic.phy80211p 	busyTime 	0.00037977528089883
scalar MyScenario.node[35].nic.mac1609_4 	ReceivedUnicastPackets 	0
scalar MyScenario.node[35].nic.mac1609_4 	ReceivedBroadcasts 	65
scalar MyScenario.node[35].nic.mac1609_4 	SentPackets 	17
scalar MyScenario.node[35].nic.mac1609_4 	SNIRLostPackets 	0
scalar MyScenario.node[35].nic.mac1609_4 	RXTXLostPackets 	0
scalar MyScenario.node[35].nic.mac1609_4 	TotalLostPackets 	0
scalar MyScenario.node[35].nic.mac1609_4 	DroppedPacketsInMac 	0
scalar MyScenario.node[35].nic.mac1609_4 	TooLittleTime 	0
scalar MyScenario.node[35].nic.mac1609_4 	TimesIntoBackoff 	17
scalar MyScenario.node[35].nic.mac1609_4 	SlotsBackoff 	35
scalar MyScenario.node[35].nic.mac1609_4 	NumInternalContention 	0
scalar MyScenario.node[35].nic.mac1609_4 	totalBusyTime 	0.008545
scalar MyScenario.node[35].veinsmobility 	startTime 	10882.2
scalar MyScenario.node[35].veinsmobility 	totalTime 	17.8
scalar MyScenario.node[35].veinsmobility 	stopTime 	10900
scalar MyScenario.node[35].veinsmobility 	minSpeed 	37.552599518224
scalar MyScenario.node[35].veinsmobility 	maxSpeed 	37.691201185588
scalar MyScenario.node[35].veinsmobility 	totalDistance 	669.71777166455
scalar MyScenario.node[35].veinsmobility 	totalCO2Emission 	139.98587290776
scalar MyScenario.node[34].appl 	generatedWSMs 	0
scalar MyScenario.node[34].appl 	receivedWSMs 	0
scalar MyScenario.node[34].appl 	generatedBSMs 	19
scalar MyScenario.node[34].appl 	receivedBSMs 	66
scalar MyScenario.node[34].appl 	generatedWSAs 	0
scalar MyScenario.node[34].appl 	receivedWSAs 	0
scalar MyScenario.node[34].nic.phy80211p 	busyTime 	0.00036705882352941
scalar MyScenario.node[34].nic.mac1609_4 	ReceivedUnicastPackets 	0
scalar MyScenario.node[34].nic.mac1609_4 	ReceivedBroadcasts 	66
scalar MyScenario.node[34].nic.mac1609_4 	SentPackets 	19
scalar MyScenario.node[34].nic.mac1609_4 	SNIRLostPackets 	0
scalar MyScenario.node[34].nic.mac1609_4 	RXTXLostPackets 	0
scalar MyScenario.node[34].nic.mac1609_4 	TotalLostPackets 	0
scalar MyScenario.node[34].nic.mac1609_4 	DroppedPacketsInMac 	0
scalar MyScenario.node[34].nic.mac1609_4 	TooLittleTime 	0
scalar MyScenario.node[34].nic.mac1609_4 	TimesIntoBackoff 	19
scalar MyScenario.node[34].nic.mac1609_4 	SlotsBackoff 	28
scalar MyScenario.node[34].nic.mac1609_4 	NumInternalContention 	0
scalar MyScenario.node[34].nic.mac1609_4 	totalBusyTime 	0.008859
scalar MyScenario.node[34].veinsmobility 	startTime 	10881.3
scalar MyScenario.node[34].veinsmobility 	totalTime 	18.7
scalar MyScenario.node[34].veinsmobility 	stopTime 	10900
scalar MyScenario.node[34].veinsmobility 	minSpeed 	36.823048431478
scalar MyScenario.node[34].veinsmobility 	maxSpeed 	37.058242597614
scalar MyScenario.node[34].veinsmobility 	totalDistance 	689.95734909842
scalar MyScenario.node[34].veinsmobility 	totalCO2Emission 	146.68469006254
scalar MyScenario.node[32].appl 	generatedWSMs 	0
scalar MyScenario.node[32].appl 	receivedWSMs 	0
scalar MyScenario.node[32].appl 	generatedBSMs 	22
scalar MyScenario.node[32].appl 	receivedBSMs 	70
scalar MyScenario.node[32].appl 	generatedWSAs 	0
scalar MyScenario.node[32].appl 	receivedWSAs 	0
scalar MyScenario.node[32].nic.phy80211p 	busyTime 	0.00032941176470588
scalar MyScenario.node[32].nic.mac1609_4 	ReceivedUnicastPackets 	0
scalar MyScenario.node[32].nic.mac1609_4 	ReceivedBroadcasts 	70
scalar MyScenario.node[32].nic.mac1609_4 	SentPackets 	22
scalar MyScenario.node[32].nic.mac1609_4 	SNIRLostPackets 	0
scalar MyScenario.node[32].nic.mac1609_4 	RXTXLostPackets 	0
scalar MyScenario.node[32].nic.mac1609_4 	TotalLostPackets 	0
scalar MyScenario.node[32].nic.mac1609_4 	DroppedPacketsInMac 	0
scalar MyScenario.node[32].nic.mac1609_4 	TooLittleTime 	0
scalar MyScenario.node[32].nic.mac1609_4 	TimesIntoBackoff 	22
scalar MyScenario.node[32].nic.mac1609_4 	SlotsBackoff 	30
scalar MyScenario.node[32].nic.mac1609_4 	NumInternalContention 	0
scalar MyScenario.node[32].nic.mac1609_4 	totalBusyTime 	0.00959
scalar MyScenario.node[32].veinsmobility 	startTime 	10877.9
scalar MyScenario.node[32].veinsmobility 	totalTime 	22.1
scalar MyScenario.node[32].veinsmobility 	stopTime 	10900
scalar MyScenario.node[32].veinsmobility 	minSpeed 	27.466883825547
scalar MyScenario.node[32].veinsmobility 	maxSpeed 	27.616301369366
scalar MyScenario.node[32].veinsmobility 	totalDistance 	607.94906866355
scalar MyScenario.node[32].veinsmobility 	totalCO2Emission 	106.50045957243
scalar MyScenario.node[14].appl 	generatedWSMs 	0
scalar MyScenario.node[14].appl 	receivedWSMs 	0
scalar MyScenario.node[14].appl 	generatedBSMs 	79
scalar MyScenario.node[14].appl 	receivedBSMs 	5
scalar MyScenario.node[14].appl 	generatedWSAs 	0
scalar MyScenario.node[14].appl 	receivedWSAs 	0
scalar MyScenario.node[14].nic.phy80211p 	busyTime 	6.5906210392902e-06
scalar MyScenario.node[14].nic.mac1609_4 	ReceivedUnicastPackets 	0
scalar MyScenario.node[14].nic.mac1609_4 	ReceivedBroadcasts 	5
scalar MyScenario.node[14].nic.mac1609_4 	SentPackets 	79
scalar MyScenario.node[14].nic.mac1609_4 	SNIRLostPackets 	0
scalar MyScenario.node[14].nic.mac1609_4 	RXTXLostPackets 	0
scalar MyScenario.node[14].nic.mac1609_4 	TotalLostPackets 	0
scalar MyScenario.node[14].nic.mac1609_4 	DroppedPacketsInMac 	0
scalar MyScenario.node[14].nic.mac1609_4 	TooLittleTime 	0
scalar MyScenario.node[14].nic.mac1609_4 	TimesIntoBackoff 	79
scalar MyScenario.node[14].nic.mac1609_4 	SlotsBackoff 	103
scalar MyScenario.node[14].nic.mac1609_4 	NumInternalContention 	0
scalar MyScenario.node[14].nic.mac1609_4 	totalBusyTime 	0.008815
scalar MyScenario.node[14].veinsmobility 	startTime 	10821.1
scalar MyScenario.node[14].veinsmobility 	totalTime 	78.9
scalar MyScenario.node[14].veinsmobility 	stopTime 	10900
scalar MyScenario.node[14].veinsmobility 	minSpeed 	0
scalar MyScenario.node[14].veinsmobility 	maxSpeed 	14.383744209988
scalar MyScenario.node[14].veinsmobility 	totalDistance 	399.87863487169
scalar MyScenario.node[14].veinsmobility 	totalCO2Emission 	178.45537402437
scalar MyScenario.node[18].appl 	generatedWSMs 	0
scalar MyScenario.node[18].appl 	receivedWSMs 	0
scalar MyScenario.node[18].appl 	generatedBSMs 	68
scalar MyScenario.node[18].appl 	receivedBSMs 	86
scalar MyScenario.node[18].appl 	generatedWSAs 	0
scalar MyScenario.node[18].appl 	receivedWSAs 	0
scalar MyScenario.node[18].nic.phy80211p 	busyTime 	0.00013152941176471
scalar MyScenario.node[18].nic.mac1609_4 	ReceivedUnicastPackets 	0
scalar MyScenario.node[18].nic.mac1609_4 	ReceivedBroadcasts 	86
scalar MyScenario.node[18].nic.mac1609_4 	SentPackets 	68
scalar MyScenario.node[18].nic.mac1609_4 	SNIRLostPackets 	0
scalar MyScenario.node[18].nic.mac1609_4 	RXTXLostPackets 	0
scalar MyScenario.node[18].nic.mac1609_4 	TotalLostPackets 	0
scalar MyScenario.node[18].nic.mac1609_4 	DroppedPacketsInMac 	0
scalar MyScenario.node[18].nic.mac1609_4 	TooLittleTime 	0
scalar MyScenario.node[18].nic.mac1609_4 	TimesIntoBackoff 	68
scalar MyScenario.node[18].nic.mac1609_4 	SlotsBackoff 	81
scalar MyScenario.node[18].nic.mac1609_4 	NumInternalContention 	0
scalar MyScenario.node[18].nic.mac1609_4 	totalBusyTime 	0.016084
scalar MyScenario.node[18].veinsmobility 	startTime 	10832
scalar MyScenario.node[18].veinsmobility 	totalTime 	68
scalar MyScenario.node[18].veinsmobility 	stopTime 	10900
scalar MyScenario.node[18].veinsmobility 	minSpeed 	4.5370920522295e-14
scalar MyScenario.node[18].veinsmobility 	maxSpeed 	22.36021203796
scalar MyScenario.node[18].veinsmobility 	totalDistance 	489.7490223164
scalar MyScenario.node[18].veinsmobility 	totalCO2Emission 	171.49470073665
scalar MyScenario.node[10].appl 	generatedWSMs 	0
scalar MyScenario.node[10].appl 	receivedWSMs 	0
scalar MyScenario.node[10].appl 	generatedBSMs 	100
scalar MyScenario.node[10].appl 	receivedBSMs 	57
scalar MyScenario.node[10].appl 	generatedWSAs 	0
scalar MyScenario.node[10].appl 	receivedWSAs 	0
scalar MyScenario.node[10].nic.phy80211p 	busyTime 	5.928e-05
scalar MyScenario.node[10].nic.mac1609_4 	ReceivedUnicastPackets 	0
scalar MyScenario.node[10].nic.mac1609_4 	ReceivedBroadcasts 	57
scalar MyScenario.node[10].nic.mac1609_4 	SentPackets 	100
scalar MyScenario.node[10].nic.mac1609_4 	SNIRLostPackets 	0
scalar MyScenario.node[10].nic.mac1609_4 	RXTXLostPackets 	0
scalar MyScenario.node[10].nic.mac1609_4 	TotalLostPackets 	0
scalar MyScenario.node[10].nic.mac1609_4 	DroppedPacketsInMac 	0
scalar MyScenario.node[10].nic.mac1609_4 	TooLittleTime 	0
scalar MyScenario.node[10].nic.mac1609_4 	TimesIntoBackoff 	100
scalar MyScenario.node[10].nic.mac1609_4 	SlotsBackoff 	162
scalar MyScenario.node[10].nic.mac1609_4 	NumInternalContention 	0
scalar MyScenario.node[10].nic.mac1609_4 	totalBusyTime 	0.016428
scalar MyScenario.node[10].veinsmobility 	startTime 	10800
scalar MyScenario.node[10].veinsmobility 	totalTime 	100
scalar MyScenario.node[10].veinsmobility 	stopTime 	10900
scalar MyScenario.node[10].veinsmobility 	minSpeed 	0
scalar MyScenario.node[10].veinsmobility 	maxSpeed 	14.224143495424
scalar MyScenario.node[10].veinsmobility 	totalDistance 	703.94233727397
scalar MyScenario.node[10].veinsmobility 	totalCO2Emission 	214.25551401069
