version 2
run AttackerType1-23-20180205-16:55:43-21627
attr configname AttackerType1
attr datetime 20180205-16:55:43
attr experiment AttackerType1
attr inifile omnetpp_23.ini
attr iterationvars "$start=5, $0=0.2"
attr iterationvarsf start=5,0.2-
attr measurement "$start=5, $0=0.2"
attr network MyScenario
attr processid 21627
attr repetition 3
attr replication #3
attr resultdir results
attr runnumber 23
attr seedset 3
attr start 5
param **.**.**.debug false
param **.**.nic.**.debug false
param **.coreDebug false
param **.debug false
param *.**.nic.mac1609_4.bitrate 6Mbps
param *.**.nic.mac1609_4.txPower 20mW
param *.**.nic.mac1609_4.useServiceChannel false
param *.**.nic.phy80211p.analogueModels "xmldoc(\"config.xml\")"
param *.**.nic.phy80211p.antenna "xmldoc(\"antenna.xml\", \"/root/Antenna[@id='monopole']\")"
param *.**.nic.phy80211p.decider "xmldoc(\"config.xml\")"
param *.**.nic.phy80211p.sensitivity -89dBm
param *.**.nic.phy80211p.thermalNoise -110dBm
param *.**.nic.phy80211p.usePropagationDelay true
param *.**.nic.phy80211p.useThermalNoise true
param *.**.veinsmobility.x 0
param *.**.veinsmobility.y 0
param *.**.veinsmobility.z 1.895
param *.**.veinsmobilityType.debug false
param *.annotations.draw false
param *.connectionManager.drawMaxIntfDist false
param *.connectionManager.maxInterfDist 2600m
param *.connectionManager.sendDirect true
param *.manager.autoShutdown true
param *.manager.configFile "\"dua.static.sumocfg\""
param *.manager.firstStepAt 5h
param *.manager.host "\"localhost\""
param *.manager.launchConfig "xmldoc(\"luxembourg.launchd.xml\")"
param *.manager.roiRects "\"2300,5400-6300,6300\""
param *.manager.seed 3
param *.manager.updateInterval 0.1s
param *.node[*].appl.attackerProbability 0.2
param *.node[*].appl.attackerType 1
param *.node[*].appl.attackerXPos 5560
param *.node[*].appl.attackerYPos 5820
param *.node[*].appl.beaconInterval 1s
param *.node[*].appl.dataOnSch false
param *.node[*].appl.headerLength "80 bit"
param *.node[*].appl.sendBeacons true
param *.node[*].appl.traceGroundTruthJSONFile "\"GroundTruthJSONlog\""
param *.node[*].appl.traceJSONFile "\"JSONlog-\""
param *.node[*].applType "\"AttackerApp\""
param *.obstacles.debug false
param *.obstacles.obstacles "xmldoc(\"config.xml\", \"//AnalogueModel[@type='SimpleObstacleShadowing']/obstacles\")"
param *.playgroundSizeX 13640m
param *.playgroundSizeY 11500m
param *.playgroundSizeZ 50m

scalar _runattrs_ 	start 	5
scalar MyScenario.node[5].appl 	generatedWSMs 	0
scalar MyScenario.node[5].appl 	receivedWSMs 	0
scalar MyScenario.node[5].appl 	generatedBSMs 	1
scalar MyScenario.node[5].appl 	receivedBSMs 	5
scalar MyScenario.node[5].appl 	generatedWSAs 	0
scalar MyScenario.node[5].appl 	receivedWSAs 	0
scalar MyScenario.node[5].nic.phy80211p 	busyTime 	0.0017333333333333
scalar MyScenario.node[5].nic.mac1609_4 	ReceivedUnicastPackets 	0
scalar MyScenario.node[5].nic.mac1609_4 	ReceivedBroadcasts 	5
scalar MyScenario.node[5].nic.mac1609_4 	SentPackets 	1
scalar MyScenario.node[5].nic.mac1609_4 	SNIRLostPackets 	0
scalar MyScenario.node[5].nic.mac1609_4 	RXTXLostPackets 	0
scalar MyScenario.node[5].nic.mac1609_4 	TotalLostPackets 	0
scalar MyScenario.node[5].nic.mac1609_4 	DroppedPacketsInMac 	0
scalar MyScenario.node[5].nic.mac1609_4 	TooLittleTime 	0
scalar MyScenario.node[5].nic.mac1609_4 	TimesIntoBackoff 	1
scalar MyScenario.node[5].nic.mac1609_4 	SlotsBackoff 	1
scalar MyScenario.node[5].nic.mac1609_4 	NumInternalContention 	0
scalar MyScenario.node[5].nic.mac1609_4 	totalBusyTime 	0.000625
scalar MyScenario.node[5].veinsmobility 	startTime 	18000
scalar MyScenario.node[5].veinsmobility 	totalTime 	0.2
scalar MyScenario.node[5].veinsmobility 	stopTime 	18000.3
scalar MyScenario.node[5].veinsmobility 	minSpeed 	32.099286359616
scalar MyScenario.node[5].veinsmobility 	maxSpeed 	32.101971671293
scalar MyScenario.node[5].veinsmobility 	totalDistance 	6.4271835177398
scalar MyScenario.node[5].veinsmobility 	totalCO2Emission 	0.55060707179274
scalar MyScenario.node[7].appl 	generatedWSMs 	0
scalar MyScenario.node[7].appl 	receivedWSMs 	0
scalar MyScenario.node[7].appl 	generatedBSMs 	2
scalar MyScenario.node[7].appl 	receivedBSMs 	17
scalar MyScenario.node[7].appl 	generatedWSAs 	0
scalar MyScenario.node[7].appl 	receivedWSAs 	0
scalar MyScenario.node[7].nic.phy80211p 	busyTime 	0.0011786666666667
scalar MyScenario.node[7].nic.mac1609_4 	ReceivedUnicastPackets 	0
scalar MyScenario.node[7].nic.mac1609_4 	ReceivedBroadcasts 	17
scalar MyScenario.node[7].nic.mac1609_4 	SentPackets 	2
scalar MyScenario.node[7].nic.mac1609_4 	SNIRLostPackets 	0
scalar MyScenario.node[7].nic.mac1609_4 	RXTXLostPackets 	0
scalar MyScenario.node[7].nic.mac1609_4 	TotalLostPackets 	0
scalar MyScenario.node[7].nic.mac1609_4 	DroppedPacketsInMac 	0
scalar MyScenario.node[7].nic.mac1609_4 	TooLittleTime 	0
scalar MyScenario.node[7].nic.mac1609_4 	TimesIntoBackoff 	2
scalar MyScenario.node[7].nic.mac1609_4 	SlotsBackoff 	4
scalar MyScenario.node[7].nic.mac1609_4 	NumInternalContention 	0
scalar MyScenario.node[7].nic.mac1609_4 	totalBusyTime 	0.001978
scalar MyScenario.node[7].veinsmobility 	startTime 	18000
scalar MyScenario.node[7].veinsmobility 	totalTime 	1.4
scalar MyScenario.node[7].veinsmobility 	stopTime 	18001.5
scalar MyScenario.node[7].veinsmobility 	minSpeed 	32.218748417716
scalar MyScenario.node[7].veinsmobility 	maxSpeed 	32.346861012217
scalar MyScenario.node[7].veinsmobility 	totalDistance 	45.25396945268
scalar MyScenario.node[7].veinsmobility 	totalCO2Emission 	8.2385949118833
scalar MyScenario.node[22].appl 	generatedWSMs 	0
scalar MyScenario.node[22].appl 	receivedWSMs 	0
scalar MyScenario.node[22].appl 	generatedBSMs 	11
scalar MyScenario.node[22].appl 	receivedBSMs 	23
scalar MyScenario.node[22].appl 	generatedWSAs 	0
scalar MyScenario.node[22].appl 	receivedWSAs 	0
scalar MyScenario.node[22].nic.phy80211p 	busyTime 	0.00022566037735849
scalar MyScenario.node[22].nic.mac1609_4 	ReceivedUnicastPackets 	0
scalar MyScenario.node[22].nic.mac1609_4 	ReceivedBroadcasts 	23
scalar MyScenario.node[22].nic.mac1609_4 	SentPackets 	11
scalar MyScenario.node[22].nic.mac1609_4 	SNIRLostPackets 	0
scalar MyScenario.node[22].nic.mac1609_4 	RXTXLostPackets 	0
scalar MyScenario.node[22].nic.mac1609_4 	TotalLostPackets 	0
scalar MyScenario.node[22].nic.mac1609_4 	DroppedPacketsInMac 	0
scalar MyScenario.node[22].nic.mac1609_4 	TooLittleTime 	0
scalar MyScenario.node[22].nic.mac1609_4 	TimesIntoBackoff 	11
scalar MyScenario.node[22].nic.mac1609_4 	SlotsBackoff 	17
scalar MyScenario.node[22].nic.mac1609_4 	NumInternalContention 	0
scalar MyScenario.node[22].nic.mac1609_4 	totalBusyTime 	0.003547
scalar MyScenario.node[22].veinsmobility 	startTime 	18000
scalar MyScenario.node[22].veinsmobility 	totalTime 	10.5
scalar MyScenario.node[22].veinsmobility 	stopTime 	18010.6
scalar MyScenario.node[22].veinsmobility 	minSpeed 	0.25627909023482
scalar MyScenario.node[22].veinsmobility 	maxSpeed 	14.478324903592
scalar MyScenario.node[22].veinsmobility 	totalDistance 	101.98608390821
scalar MyScenario.node[22].veinsmobility 	totalCO2Emission 	44.549134648274
scalar MyScenario.node[6].appl 	generatedWSMs 	0
scalar MyScenario.node[6].appl 	receivedWSMs 	0
scalar MyScenario.node[6].appl 	generatedBSMs 	11
scalar MyScenario.node[6].appl 	receivedBSMs 	161
scalar MyScenario.node[6].appl 	generatedWSAs 	0
scalar MyScenario.node[6].appl 	receivedWSAs 	0
scalar MyScenario.node[6].nic.phy80211p 	busyTime 	0.001495
scalar MyScenario.node[6].nic.mac1609_4 	ReceivedUnicastPackets 	0
scalar MyScenario.node[6].nic.mac1609_4 	ReceivedBroadcasts 	161
scalar MyScenario.node[6].nic.mac1609_4 	SentPackets 	11
scalar MyScenario.node[6].nic.mac1609_4 	SNIRLostPackets 	0
scalar MyScenario.node[6].nic.mac1609_4 	RXTXLostPackets 	0
scalar MyScenario.node[6].nic.mac1609_4 	TotalLostPackets 	0
scalar MyScenario.node[6].nic.mac1609_4 	DroppedPacketsInMac 	0
scalar MyScenario.node[6].nic.mac1609_4 	TooLittleTime 	0
scalar MyScenario.node[6].nic.mac1609_4 	TimesIntoBackoff 	11
scalar MyScenario.node[6].nic.mac1609_4 	SlotsBackoff 	18
scalar MyScenario.node[6].nic.mac1609_4 	NumInternalContention 	0
scalar MyScenario.node[6].nic.mac1609_4 	totalBusyTime 	0.017899
scalar MyScenario.node[6].veinsmobility 	startTime 	18000
scalar MyScenario.node[6].veinsmobility 	totalTime 	11.1
scalar MyScenario.node[6].veinsmobility 	stopTime 	18011.2
scalar MyScenario.node[6].veinsmobility 	minSpeed 	32.139011771374
scalar MyScenario.node[6].veinsmobility 	maxSpeed 	32.28633004121
scalar MyScenario.node[6].veinsmobility 	totalDistance 	358.00066795411
scalar MyScenario.node[6].veinsmobility 	totalCO2Emission 	64.549554424313
scalar MyScenario.node[20].appl 	generatedWSMs 	0
scalar MyScenario.node[20].appl 	receivedWSMs 	0
scalar MyScenario.node[20].appl 	generatedBSMs 	12
scalar MyScenario.node[20].appl 	receivedBSMs 	31
scalar MyScenario.node[20].appl 	generatedWSAs 	0
scalar MyScenario.node[20].appl 	receivedWSAs 	0
scalar MyScenario.node[20].nic.phy80211p 	busyTime 	0.00026866666666667
scalar MyScenario.node[20].nic.mac1609_4 	ReceivedUnicastPackets 	0
scalar MyScenario.node[20].nic.mac1609_4 	ReceivedBroadcasts 	31
scalar MyScenario.node[20].nic.mac1609_4 	SentPackets 	12
scalar MyScenario.node[20].nic.mac1609_4 	SNIRLostPackets 	0
scalar MyScenario.node[20].nic.mac1609_4 	RXTXLostPackets 	0
scalar MyScenario.node[20].nic.mac1609_4 	TotalLostPackets 	0
scalar MyScenario.node[20].nic.mac1609_4 	DroppedPacketsInMac 	0
scalar MyScenario.node[20].nic.mac1609_4 	TooLittleTime 	0
scalar MyScenario.node[20].nic.mac1609_4 	TimesIntoBackoff 	12
scalar MyScenario.node[20].nic.mac1609_4 	SlotsBackoff 	19
scalar MyScenario.node[20].nic.mac1609_4 	NumInternalContention 	0
scalar MyScenario.node[20].nic.mac1609_4 	totalBusyTime 	0.004484
scalar MyScenario.node[20].veinsmobility 	startTime 	18000
scalar MyScenario.node[20].veinsmobility 	totalTime 	11.9
scalar MyScenario.node[20].veinsmobility 	stopTime 	18012
scalar MyScenario.node[20].veinsmobility 	minSpeed 	4.7396639046421e-14
scalar MyScenario.node[20].veinsmobility 	maxSpeed 	14.13403178013
scalar MyScenario.node[20].veinsmobility 	totalDistance 	108.96323973564
scalar MyScenario.node[20].veinsmobility 	totalCO2Emission 	45.30531495559
scalar MyScenario.node[8].appl 	generatedWSMs 	0
scalar MyScenario.node[8].appl 	receivedWSMs 	0
scalar MyScenario.node[8].appl 	generatedBSMs 	20
scalar MyScenario.node[8].appl 	receivedBSMs 	269
scalar MyScenario.node[8].appl 	generatedWSAs 	0
scalar MyScenario.node[8].appl 	receivedWSAs 	0
scalar MyScenario.node[8].nic.phy80211p 	busyTime 	0.0013713725490196
scalar MyScenario.node[8].nic.mac1609_4 	ReceivedUnicastPackets 	0
scalar MyScenario.node[8].nic.mac1609_4 	ReceivedBroadcasts 	269
scalar MyScenario.node[8].nic.mac1609_4 	SentPackets 	20
scalar MyScenario.node[8].nic.mac1609_4 	SNIRLostPackets 	0
scalar MyScenario.node[8].nic.mac1609_4 	RXTXLostPackets 	0
scalar MyScenario.node[8].nic.mac1609_4 	TotalLostPackets 	0
scalar MyScenario.node[8].nic.mac1609_4 	DroppedPacketsInMac 	0
scalar MyScenario.node[8].nic.mac1609_4 	TooLittleTime 	0
scalar MyScenario.node[8].nic.mac1609_4 	TimesIntoBackoff 	20
scalar MyScenario.node[8].nic.mac1609_4 	SlotsBackoff 	26
scalar MyScenario.node[8].nic.mac1609_4 	NumInternalContention 	0
scalar MyScenario.node[8].nic.mac1609_4 	totalBusyTime 	0.030076
scalar MyScenario.node[8].veinsmobility 	startTime 	18000
scalar MyScenario.node[8].veinsmobility 	totalTime 	20.3
scalar MyScenario.node[8].veinsmobility 	stopTime 	18020.4
scalar MyScenario.node[8].veinsmobility 	minSpeed 	29.880671818536
scalar MyScenario.node[8].veinsmobility 	maxSpeed 	29.999726935364
scalar MyScenario.node[8].veinsmobility 	totalDistance 	607.75575938819
scalar MyScenario.node[8].veinsmobility 	totalCO2Emission 	103.28479653533
scalar MyScenario.node[28].appl 	generatedWSMs 	0
scalar MyScenario.node[28].appl 	receivedWSMs 	0
scalar MyScenario.node[28].appl 	generatedBSMs 	20
scalar MyScenario.node[28].appl 	receivedBSMs 	36
scalar MyScenario.node[28].appl 	generatedWSAs 	0
scalar MyScenario.node[28].appl 	receivedWSAs 	0
scalar MyScenario.node[28].nic.phy80211p 	busyTime 	0.00018174757281553
scalar MyScenario.node[28].nic.mac1609_4 	ReceivedUnicastPackets 	0
scalar MyScenario.node[28].nic.mac1609_4 	ReceivedBroadcasts 	36
scalar MyScenario.node[28].nic.mac1609_4 	SentPackets 	20
scalar MyScenario.node[28].nic.mac1609_4 	SNIRLostPackets 	0
scalar MyScenario.node[28].nic.mac1609_4 	RXTXLostPackets 	0
scalar MyScenario.node[28].nic.mac1609_4 	TotalLostPackets 	0
scalar MyScenario.node[28].nic.mac1609_4 	DroppedPacketsInMac 	0
scalar MyScenario.node[28].nic.mac1609_4 	TooLittleTime 	0
scalar MyScenario.node[28].nic.mac1609_4 	TimesIntoBackoff 	20
scalar MyScenario.node[28].nic.mac1609_4 	SlotsBackoff 	31
scalar MyScenario.node[28].nic.mac1609_4 	NumInternalContention 	0
scalar MyScenario.node[28].nic.mac1609_4 	totalBusyTime 	0.005844
scalar MyScenario.node[28].veinsmobility 	startTime 	18000
scalar MyScenario.node[28].veinsmobility 	totalTime 	20.5
scalar MyScenario.node[28].veinsmobility 	stopTime 	18020.6
scalar MyScenario.node[28].veinsmobility 	minSpeed 	0.24915197757888
scalar MyScenario.node[28].veinsmobility 	maxSpeed 	13.760035662183
scalar MyScenario.node[28].veinsmobility 	totalDistance 	234.99898925316
scalar MyScenario.node[28].veinsmobility 	totalCO2Emission 	64.237966593691
scalar MyScenario.node[26].appl 	generatedWSMs 	0
scalar MyScenario.node[26].appl 	receivedWSMs 	0
scalar MyScenario.node[26].appl 	generatedBSMs 	21
scalar MyScenario.node[26].appl 	receivedBSMs 	202
scalar MyScenario.node[26].appl 	generatedWSAs 	0
scalar MyScenario.node[26].appl 	receivedWSAs 	0
scalar MyScenario.node[26].nic.phy80211p 	busyTime 	0.0010051674641148
scalar MyScenario.node[26].nic.mac1609_4 	ReceivedUnicastPackets 	0
scalar MyScenario.node[26].nic.mac1609_4 	ReceivedBroadcasts 	202
scalar MyScenario.node[26].nic.mac1609_4 	SentPackets 	21
scalar MyScenario.node[26].nic.mac1609_4 	SNIRLostPackets 	0
scalar MyScenario.node[26].nic.mac1609_4 	RXTXLostPackets 	0
scalar MyScenario.node[26].nic.mac1609_4 	TotalLostPackets 	0
scalar MyScenario.node[26].nic.mac1609_4 	DroppedPacketsInMac 	0
scalar MyScenario.node[26].nic.mac1609_4 	TooLittleTime 	0
scalar MyScenario.node[26].nic.mac1609_4 	TimesIntoBackoff 	21
scalar MyScenario.node[26].nic.mac1609_4 	SlotsBackoff 	38
scalar MyScenario.node[26].nic.mac1609_4 	NumInternalContention 	0
scalar MyScenario.node[26].nic.mac1609_4 	totalBusyTime 	0.023213
scalar MyScenario.node[26].veinsmobility 	startTime 	18000
scalar MyScenario.node[26].veinsmobility 	totalTime 	20.8
scalar MyScenario.node[26].veinsmobility 	stopTime 	18020.9
scalar MyScenario.node[26].veinsmobility 	minSpeed 	0.26758975875983
scalar MyScenario.node[26].veinsmobility 	maxSpeed 	13.501265096852
scalar MyScenario.node[26].veinsmobility 	totalDistance 	241.4654203817
scalar MyScenario.node[26].veinsmobility 	totalCO2Emission 	65.28804400465
scalar MyScenario.node[21].appl 	generatedWSMs 	0
scalar MyScenario.node[21].appl 	receivedWSMs 	0
scalar MyScenario.node[21].appl 	generatedBSMs 	21
scalar MyScenario.node[21].appl 	receivedBSMs 	284
scalar MyScenario.node[21].appl 	generatedWSAs 	0
scalar MyScenario.node[21].appl 	receivedWSAs 	0
scalar MyScenario.node[21].nic.phy80211p 	busyTime 	0.0013548623853211
scalar MyScenario.node[21].nic.mac1609_4 	ReceivedUnicastPackets 	0
scalar MyScenario.node[21].nic.mac1609_4 	ReceivedBroadcasts 	284
scalar MyScenario.node[21].nic.mac1609_4 	SentPackets 	21
scalar MyScenario.node[21].nic.mac1609_4 	SNIRLostPackets 	0
scalar MyScenario.node[21].nic.mac1609_4 	RXTXLostPackets 	0
scalar MyScenario.node[21].nic.mac1609_4 	TotalLostPackets 	0
scalar MyScenario.node[21].nic.mac1609_4 	DroppedPacketsInMac 	0
scalar MyScenario.node[21].nic.mac1609_4 	TooLittleTime 	0
scalar MyScenario.node[21].nic.mac1609_4 	TimesIntoBackoff 	21
scalar MyScenario.node[21].nic.mac1609_4 	SlotsBackoff 	30
scalar MyScenario.node[21].nic.mac1609_4 	NumInternalContention 	0
scalar MyScenario.node[21].nic.mac1609_4 	totalBusyTime 	0.031741
scalar MyScenario.node[21].veinsmobility 	startTime 	18000
scalar MyScenario.node[21].veinsmobility 	totalTime 	21.7
scalar MyScenario.node[21].veinsmobility 	stopTime 	18021.8
scalar MyScenario.node[21].veinsmobility 	minSpeed 	30.273148139259
scalar MyScenario.node[21].veinsmobility 	maxSpeed 	35.379758230229
scalar MyScenario.node[21].veinsmobility 	totalDistance 	691.00275968576
scalar MyScenario.node[21].veinsmobility 	totalCO2Emission 	85.154057007557
scalar MyScenario.node[51].appl 	generatedWSMs 	0
scalar MyScenario.node[51].appl 	receivedWSMs 	0
scalar MyScenario.node[51].appl 	generatedBSMs 	15
scalar MyScenario.node[51].appl 	receivedBSMs 	50
scalar MyScenario.node[51].appl 	generatedWSAs 	0
scalar MyScenario.node[51].appl 	receivedWSAs 	0
scalar MyScenario.node[51].nic.phy80211p 	busyTime 	0.00035135135135135
scalar MyScenario.node[51].nic.mac1609_4 	ReceivedUnicastPackets 	0
scalar MyScenario.node[51].nic.mac1609_4 	ReceivedBroadcasts 	50
scalar MyScenario.node[51].nic.mac1609_4 	SentPackets 	15
scalar MyScenario.node[51].nic.mac1609_4 	SNIRLostPackets 	0
scalar MyScenario.node[51].nic.mac1609_4 	RXTXLostPackets 	0
scalar MyScenario.node[51].nic.mac1609_4 	TotalLostPackets 	0
scalar MyScenario.node[51].nic.mac1609_4 	DroppedPacketsInMac 	0
scalar MyScenario.node[51].nic.mac1609_4 	TooLittleTime 	0
scalar MyScenario.node[51].nic.mac1609_4 	TimesIntoBackoff 	15
scalar MyScenario.node[51].nic.mac1609_4 	SlotsBackoff 	18
scalar MyScenario.node[51].nic.mac1609_4 	NumInternalContention 	0
scalar MyScenario.node[51].nic.mac1609_4 	totalBusyTime 	0.006775
scalar MyScenario.node[51].veinsmobility 	startTime 	18007.5
scalar MyScenario.node[51].veinsmobility 	totalTime 	14.7
scalar MyScenario.node[51].veinsmobility 	stopTime 	18022.3
scalar MyScenario.node[51].veinsmobility 	minSpeed 	12.91075350504
scalar MyScenario.node[51].veinsmobility 	maxSpeed 	13.039544607523
scalar MyScenario.node[51].veinsmobility 	totalDistance 	190.77300884112
scalar MyScenario.node[51].veinsmobility 	totalCO2Emission 	32.49025771351
scalar MyScenario.node[37].appl 	generatedWSMs 	0
scalar MyScenario.node[37].appl 	receivedWSMs 	0
scalar MyScenario.node[37].appl 	generatedBSMs 	23
scalar MyScenario.node[37].appl 	receivedBSMs 	64
scalar MyScenario.node[37].appl 	generatedWSAs 	0
scalar MyScenario.node[37].appl 	receivedWSAs 	0
scalar MyScenario.node[37].nic.phy80211p 	busyTime 	0.00029012875536481
scalar MyScenario.node[37].nic.mac1609_4 	ReceivedUnicastPackets 	0
scalar MyScenario.node[37].nic.mac1609_4 	ReceivedBroadcasts 	64
scalar MyScenario.node[37].nic.mac1609_4 	SentPackets 	23
scalar MyScenario.node[37].nic.mac1609_4 	SNIRLostPackets 	1
scalar MyScenario.node[37].nic.mac1609_4 	RXTXLostPackets 	0
scalar MyScenario.node[37].nic.mac1609_4 	TotalLostPackets 	1
scalar MyScenario.node[37].nic.mac1609_4 	DroppedPacketsInMac 	0
scalar MyScenario.node[37].nic.mac1609_4 	TooLittleTime 	0
scalar MyScenario.node[37].nic.mac1609_4 	TimesIntoBackoff 	23
scalar MyScenario.node[37].nic.mac1609_4 	SlotsBackoff 	35
scalar MyScenario.node[37].nic.mac1609_4 	NumInternalContention 	0
scalar MyScenario.node[37].nic.mac1609_4 	totalBusyTime 	0.009175
scalar MyScenario.node[37].veinsmobility 	startTime 	18000
scalar MyScenario.node[37].veinsmobility 	totalTime 	23.2
scalar MyScenario.node[37].veinsmobility 	stopTime 	18023.3
scalar MyScenario.node[37].veinsmobility 	minSpeed 	0.83970260774523
scalar MyScenario.node[37].veinsmobility 	maxSpeed 	15.397450453287
scalar MyScenario.node[37].veinsmobility 	totalDistance 	255.25057272362
scalar MyScenario.node[37].veinsmobility 	totalCO2Emission 	62.540402715305
scalar MyScenario.node[4].appl 	generatedWSMs 	0
scalar MyScenario.node[4].appl 	receivedWSMs 	0
scalar MyScenario.node[4].appl 	generatedBSMs 	25
scalar MyScenario.node[4].appl 	receivedBSMs 	314
scalar MyScenario.node[4].appl 	generatedWSAs 	0
scalar MyScenario.node[4].appl 	receivedWSAs 	0
scalar MyScenario.node[4].nic.phy80211p 	busyTime 	0.0012907509881423
scalar MyScenario.node[4].nic.mac1609_4 	ReceivedUnicastPackets 	0
scalar MyScenario.node[4].nic.mac1609_4 	ReceivedBroadcasts 	314
scalar MyScenario.node[4].nic.mac1609_4 	SentPackets 	25
scalar MyScenario.node[4].nic.mac1609_4 	SNIRLostPackets 	0
scalar MyScenario.node[4].nic.mac1609_4 	RXTXLostPackets 	0
scalar MyScenario.node[4].nic.mac1609_4 	TotalLostPackets 	0
scalar MyScenario.node[4].nic.mac1609_4 	DroppedPacketsInMac 	0
scalar MyScenario.node[4].nic.mac1609_4 	TooLittleTime 	0
scalar MyScenario.node[4].nic.mac1609_4 	TimesIntoBackoff 	25
scalar MyScenario.node[4].nic.mac1609_4 	SlotsBackoff 	29
scalar MyScenario.node[4].nic.mac1609_4 	NumInternalContention 	0
scalar MyScenario.node[4].nic.mac1609_4 	totalBusyTime 	0.035281
scalar MyScenario.node[4].veinsmobility 	startTime 	18000
scalar MyScenario.node[4].veinsmobility 	totalTime 	25.2
scalar MyScenario.node[4].veinsmobility 	stopTime 	18025.3
scalar MyScenario.node[4].veinsmobility 	minSpeed 	29.885051866519
scalar MyScenario.node[4].veinsmobility 	maxSpeed 	29.999855451718
scalar MyScenario.node[4].veinsmobility 	totalDistance 	755.3632754463
scalar MyScenario.node[4].veinsmobility 	totalCO2Emission 	128.67424477799
scalar MyScenario.node[1].appl 	generatedWSMs 	0
scalar MyScenario.node[1].appl 	receivedWSMs 	0
scalar MyScenario.node[1].appl 	generatedBSMs 	26
scalar MyScenario.node[1].appl 	receivedBSMs 	326
scalar MyScenario.node[1].appl 	generatedWSAs 	0
scalar MyScenario.node[1].appl 	receivedWSAs 	0
scalar MyScenario.node[1].nic.phy80211p 	busyTime 	0.0013192217898833
scalar MyScenario.node[1].nic.mac1609_4 	ReceivedUnicastPackets 	0
scalar MyScenario.node[1].nic.mac1609_4 	ReceivedBroadcasts 	326
scalar MyScenario.node[1].nic.mac1609_4 	SentPackets 	26
scalar MyScenario.node[1].nic.mac1609_4 	SNIRLostPackets 	0
scalar MyScenario.node[1].nic.mac1609_4 	RXTXLostPackets 	0
scalar MyScenario.node[1].nic.mac1609_4 	TotalLostPackets 	0
scalar MyScenario.node[1].nic.mac1609_4 	DroppedPacketsInMac 	0
scalar MyScenario.node[1].nic.mac1609_4 	TooLittleTime 	0
scalar MyScenario.node[1].nic.mac1609_4 	TimesIntoBackoff 	26
scalar MyScenario.node[1].nic.mac1609_4 	SlotsBackoff 	39
scalar MyScenario.node[1].nic.mac1609_4 	NumInternalContention 	0
scalar MyScenario.node[1].nic.mac1609_4 	totalBusyTime 	0.036634
scalar MyScenario.node[1].veinsmobility 	startTime 	18000
scalar MyScenario.node[1].veinsmobility 	totalTime 	25.6
scalar MyScenario.node[1].veinsmobility 	stopTime 	18025.7
scalar MyScenario.node[1].veinsmobility 	minSpeed 	30.090271925372
scalar MyScenario.node[1].veinsmobility 	maxSpeed 	30.229919858221
scalar MyScenario.node[1].veinsmobility 	totalDistance 	772.17035302696
scalar MyScenario.node[1].veinsmobility 	totalCO2Emission 	136.59956844828
scalar MyScenario.node[42].appl 	generatedWSMs 	0
scalar MyScenario.node[42].appl 	receivedWSMs 	0
scalar MyScenario.node[42].appl 	generatedBSMs 	24
scalar MyScenario.node[42].appl 	receivedBSMs 	269
scalar MyScenario.node[42].appl 	generatedWSAs 	0
scalar MyScenario.node[42].appl 	receivedWSAs 	0
scalar MyScenario.node[42].nic.phy80211p 	busyTime 	0.0011955555555556
scalar MyScenario.node[42].nic.mac1609_4 	ReceivedUnicastPackets 	0
scalar MyScenario.node[42].nic.mac1609_4 	ReceivedBroadcasts 	269
scalar MyScenario.node[42].nic.mac1609_4 	SentPackets 	24
scalar MyScenario.node[42].nic.mac1609_4 	SNIRLostPackets 	0
scalar MyScenario.node[42].nic.mac1609_4 	RXTXLostPackets 	0
scalar MyScenario.node[42].nic.mac1609_4 	TotalLostPackets 	0
scalar MyScenario.node[42].nic.mac1609_4 	DroppedPacketsInMac 	0
scalar MyScenario.node[42].nic.mac1609_4 	TooLittleTime 	0
scalar MyScenario.node[42].nic.mac1609_4 	TimesIntoBackoff 	24
scalar MyScenario.node[42].nic.mac1609_4 	SlotsBackoff 	27
scalar MyScenario.node[42].nic.mac1609_4 	NumInternalContention 	0
scalar MyScenario.node[42].nic.mac1609_4 	totalBusyTime 	0.030496
scalar MyScenario.node[42].veinsmobility 	startTime 	18003.3
scalar MyScenario.node[42].veinsmobility 	totalTime 	23.3
scalar MyScenario.node[42].veinsmobility 	stopTime 	18026.7
scalar MyScenario.node[42].veinsmobility 	minSpeed 	35.606113893198
scalar MyScenario.node[42].veinsmobility 	maxSpeed 	39.459109623069
scalar MyScenario.node[42].veinsmobility 	totalDistance 	905.27814693012
scalar MyScenario.node[42].veinsmobility 	totalCO2Emission 	186.487071834
scalar MyScenario.node[2].appl 	generatedWSMs 	0
scalar MyScenario.node[2].appl 	receivedWSMs 	0
scalar MyScenario.node[2].appl 	generatedBSMs 	27
scalar MyScenario.node[2].appl 	receivedBSMs 	341
scalar MyScenario.node[2].appl 	generatedWSAs 	0
scalar MyScenario.node[2].appl 	receivedWSAs 	0
scalar MyScenario.node[2].nic.phy80211p 	busyTime 	0.0013271641791045
scalar MyScenario.node[2].nic.mac1609_4 	ReceivedUnicastPackets 	0
scalar MyScenario.node[2].nic.mac1609_4 	ReceivedBroadcasts 	341
scalar MyScenario.node[2].nic.mac1609_4 	SentPackets 	27
scalar MyScenario.node[2].nic.mac1609_4 	SNIRLostPackets 	1
scalar MyScenario.node[2].nic.mac1609_4 	RXTXLostPackets 	0
scalar MyScenario.node[2].nic.mac1609_4 	TotalLostPackets 	1
scalar MyScenario.node[2].nic.mac1609_4 	DroppedPacketsInMac 	0
scalar MyScenario.node[2].nic.mac1609_4 	TooLittleTime 	0
scalar MyScenario.node[2].nic.mac1609_4 	TimesIntoBackoff 	27
scalar MyScenario.node[2].nic.mac1609_4 	SlotsBackoff 	42
scalar MyScenario.node[2].nic.mac1609_4 	NumInternalContention 	0
scalar MyScenario.node[2].nic.mac1609_4 	totalBusyTime 	0.038403
scalar MyScenario.node[2].veinsmobility 	startTime 	18000
scalar MyScenario.node[2].veinsmobility 	totalTime 	26.7
scalar MyScenario.node[2].veinsmobility 	stopTime 	18026.8
scalar MyScenario.node[2].veinsmobility 	minSpeed 	29.88019333804
scalar MyScenario.node[2].veinsmobility 	maxSpeed 	29.999983934714
scalar MyScenario.node[2].veinsmobility 	totalDistance 	800.38613702511
scalar MyScenario.node[2].veinsmobility 	totalCO2Emission 	136.65539488989
scalar MyScenario.node[3].appl 	generatedWSMs 	0
scalar MyScenario.node[3].appl 	receivedWSMs 	0
scalar MyScenario.node[3].appl 	generatedBSMs 	27
scalar MyScenario.node[3].appl 	receivedBSMs 	333
scalar MyScenario.node[3].appl 	generatedWSAs 	0
scalar MyScenario.node[3].appl 	receivedWSAs 	0
scalar MyScenario.node[3].nic.phy80211p 	busyTime 	0.0012874349442379
scalar MyScenario.node[3].nic.mac1609_4 	ReceivedUnicastPackets 	0
scalar MyScenario.node[3].nic.mac1609_4 	ReceivedBroadcasts 	333
scalar MyScenario.node[3].nic.mac1609_4 	SentPackets 	27
scalar MyScenario.node[3].nic.mac1609_4 	SNIRLostPackets 	0
scalar MyScenario.node[3].nic.mac1609_4 	RXTXLostPackets 	0
scalar MyScenario.node[3].nic.mac1609_4 	TotalLostPackets 	0
scalar MyScenario.node[3].nic.mac1609_4 	DroppedPacketsInMac 	0
scalar MyScenario.node[3].nic.mac1609_4 	TooLittleTime 	0
scalar MyScenario.node[3].nic.mac1609_4 	TimesIntoBackoff 	27
scalar MyScenario.node[3].nic.mac1609_4 	SlotsBackoff 	40
scalar MyScenario.node[3].nic.mac1609_4 	NumInternalContention 	0
scalar MyScenario.node[3].nic.mac1609_4 	totalBusyTime 	0.037467
scalar MyScenario.node[3].veinsmobility 	startTime 	18000
scalar MyScenario.node[3].veinsmobility 	totalTime 	26.8
scalar MyScenario.node[3].veinsmobility 	stopTime 	18026.9
scalar MyScenario.node[3].veinsmobility 	minSpeed 	30.08922096814
scalar MyScenario.node[3].veinsmobility 	maxSpeed 	31.701642844643
scalar MyScenario.node[3].veinsmobility 	totalDistance 	819.40012386189
scalar MyScenario.node[3].veinsmobility 	totalCO2Emission 	147.35520359207
scalar MyScenario.node[49].appl 	generatedWSMs 	0
scalar MyScenario.node[49].appl 	receivedWSMs 	0
scalar MyScenario.node[49].appl 	generatedBSMs 	21
scalar MyScenario.node[49].appl 	receivedBSMs 	71
scalar MyScenario.node[49].appl 	generatedWSAs 	0
scalar MyScenario.node[49].appl 	receivedWSAs 	0
scalar MyScenario.node[49].nic.phy80211p 	busyTime 	0.00036019512195122
scalar MyScenario.node[49].nic.mac1609_4 	ReceivedUnicastPackets 	0
scalar MyScenario.node[49].nic.mac1609_4 	ReceivedBroadcasts 	71
scalar MyScenario.node[49].nic.mac1609_4 	SentPackets 	21
scalar MyScenario.node[49].nic.mac1609_4 	SNIRLostPackets 	0
scalar MyScenario.node[49].nic.mac1609_4 	RXTXLostPackets 	0
scalar MyScenario.node[49].nic.mac1609_4 	TotalLostPackets 	0
scalar MyScenario.node[49].nic.mac1609_4 	DroppedPacketsInMac 	0
scalar MyScenario.node[49].nic.mac1609_4 	TooLittleTime 	0
scalar MyScenario.node[49].nic.mac1609_4 	TimesIntoBackoff 	21
scalar MyScenario.node[49].nic.mac1609_4 	SlotsBackoff 	27
scalar MyScenario.node[49].nic.mac1609_4 	NumInternalContention 	0
scalar MyScenario.node[49].nic.mac1609_4 	totalBusyTime 	0.009589
scalar MyScenario.node[49].veinsmobility 	startTime 	18006.7
scalar MyScenario.node[49].veinsmobility 	totalTime 	20.4
scalar MyScenario.node[49].veinsmobility 	stopTime 	18027.2
scalar MyScenario.node[49].veinsmobility 	minSpeed 	13.915736880232
scalar MyScenario.node[49].veinsmobility 	maxSpeed 	18.350090472979
scalar MyScenario.node[49].veinsmobility 	totalDistance 	347.34201422747
scalar MyScenario.node[49].veinsmobility 	totalCO2Emission 	72.180018568545
scalar MyScenario.node[44].appl 	generatedWSMs 	0
scalar MyScenario.node[44].appl 	receivedWSMs 	0
scalar MyScenario.node[44].appl 	generatedBSMs 	24
scalar MyScenario.node[44].appl 	receivedBSMs 	285
scalar MyScenario.node[44].appl 	generatedWSAs 	0
scalar MyScenario.node[44].appl 	receivedWSAs 	0
scalar MyScenario.node[44].nic.phy80211p 	busyTime 	0.0012247933884298
scalar MyScenario.node[44].nic.mac1609_4 	ReceivedUnicastPackets 	0
scalar MyScenario.node[44].nic.mac1609_4 	ReceivedBroadcasts 	285
scalar MyScenario.node[44].nic.mac1609_4 	SentPackets 	24
scalar MyScenario.node[44].nic.mac1609_4 	SNIRLostPackets 	0
scalar MyScenario.node[44].nic.mac1609_4 	RXTXLostPackets 	0
scalar MyScenario.node[44].nic.mac1609_4 	TotalLostPackets 	0
scalar MyScenario.node[44].nic.mac1609_4 	DroppedPacketsInMac 	0
scalar MyScenario.node[44].nic.mac1609_4 	TooLittleTime 	0
scalar MyScenario.node[44].nic.mac1609_4 	TimesIntoBackoff 	24
scalar MyScenario.node[44].nic.mac1609_4 	SlotsBackoff 	31
scalar MyScenario.node[44].nic.mac1609_4 	NumInternalContention 	0
scalar MyScenario.node[44].nic.mac1609_4 	totalBusyTime 	0.03216
scalar MyScenario.node[44].veinsmobility 	startTime 	18003.8
scalar MyScenario.node[44].veinsmobility 	totalTime 	24.1
scalar MyScenario.node[44].veinsmobility 	stopTime 	18028
scalar MyScenario.node[44].veinsmobility 	minSpeed 	35.565468503951
scalar MyScenario.node[44].veinsmobility 	maxSpeed 	37.716935033812
scalar MyScenario.node[44].veinsmobility 	totalDistance 	900.40041595204
scalar MyScenario.node[44].veinsmobility 	totalCO2Emission 	196.24159771312
scalar MyScenario.node[0].appl 	generatedWSMs 	0
scalar MyScenario.node[0].appl 	receivedWSMs 	0
scalar MyScenario.node[0].appl 	generatedBSMs 	34
scalar MyScenario.node[0].appl 	receivedBSMs 	420
scalar MyScenario.node[0].appl 	generatedWSAs 	0
scalar MyScenario.node[0].appl 	receivedWSAs 	0
scalar MyScenario.node[0].nic.phy80211p 	busyTime 	0.0013156626506024
scalar MyScenario.node[0].nic.mac1609_4 	ReceivedUnicastPackets 	0
scalar MyScenario.node[0].nic.mac1609_4 	ReceivedBroadcasts 	420
scalar MyScenario.node[0].nic.mac1609_4 	SentPackets 	34
scalar MyScenario.node[0].nic.mac1609_4 	SNIRLostPackets 	0
scalar MyScenario.node[0].nic.mac1609_4 	RXTXLostPackets 	0
scalar MyScenario.node[0].nic.mac1609_4 	TotalLostPackets 	0
scalar MyScenario.node[0].nic.mac1609_4 	DroppedPacketsInMac 	0
scalar MyScenario.node[0].nic.mac1609_4 	TooLittleTime 	0
scalar MyScenario.node[0].nic.mac1609_4 	TimesIntoBackoff 	34
scalar MyScenario.node[0].nic.mac1609_4 	SlotsBackoff 	55
scalar MyScenario.node[0].nic.mac1609_4 	NumInternalContention 	0
scalar MyScenario.node[0].nic.mac1609_4 	totalBusyTime 	0.04725
scalar MyScenario.node[0].veinsmobility 	startTime 	18000
scalar MyScenario.node[0].veinsmobility 	totalTime 	33.1
scalar MyScenario.node[0].veinsmobility 	stopTime 	18033.2
scalar MyScenario.node[0].veinsmobility 	minSpeed 	24.533006210808
scalar MyScenario.node[0].veinsmobility 	maxSpeed 	24.662625212745
scalar MyScenario.node[0].veinsmobility 	totalDistance 	813.21664786188
scalar MyScenario.node[0].veinsmobility 	totalCO2Emission 	129.64102162752
scalar MyScenario.node[41].appl 	generatedWSMs 	0
scalar MyScenario.node[41].appl 	receivedWSMs 	0
scalar MyScenario.node[41].appl 	generatedBSMs 	32
scalar MyScenario.node[41].appl 	receivedBSMs 	404
scalar MyScenario.node[41].appl 	generatedWSAs 	0
scalar MyScenario.node[41].appl 	receivedWSAs 	0
scalar MyScenario.node[41].nic.phy80211p 	busyTime 	0.0013338412698413
scalar MyScenario.node[41].nic.mac1609_4 	ReceivedUnicastPackets 	0
scalar MyScenario.node[41].nic.mac1609_4 	ReceivedBroadcasts 	404
scalar MyScenario.node[41].nic.mac1609_4 	SentPackets 	32
scalar MyScenario.node[41].nic.mac1609_4 	SNIRLostPackets 	0
scalar MyScenario.node[41].nic.mac1609_4 	RXTXLostPackets 	0
scalar MyScenario.node[41].nic.mac1609_4 	TotalLostPackets 	0
scalar MyScenario.node[41].nic.mac1609_4 	DroppedPacketsInMac 	0
scalar MyScenario.node[41].nic.mac1609_4 	TooLittleTime 	0
scalar MyScenario.node[41].nic.mac1609_4 	TimesIntoBackoff 	32
scalar MyScenario.node[41].nic.mac1609_4 	SlotsBackoff 	46
scalar MyScenario.node[41].nic.mac1609_4 	NumInternalContention 	0
scalar MyScenario.node[41].nic.mac1609_4 	totalBusyTime 	0.045376
scalar MyScenario.node[41].veinsmobility 	startTime 	18003
scalar MyScenario.node[41].veinsmobility 	totalTime 	31.4
scalar MyScenario.node[41].veinsmobility 	stopTime 	18034.5
scalar MyScenario.node[41].veinsmobility 	minSpeed 	24.772501315565
scalar MyScenario.node[41].veinsmobility 	maxSpeed 	36.438958707853
scalar MyScenario.node[41].veinsmobility 	totalDistance 	900.12747185682
scalar MyScenario.node[41].veinsmobility 	totalCO2Emission 	89.028692612601
scalar MyScenario.node[40].appl 	generatedWSMs 	0
scalar MyScenario.node[40].appl 	receivedWSMs 	0
scalar MyScenario.node[40].appl 	generatedBSMs 	32
scalar MyScenario.node[40].appl 	receivedBSMs 	446
scalar MyScenario.node[40].appl 	generatedWSAs 	0
scalar MyScenario.node[40].appl 	receivedWSAs 	0
scalar MyScenario.node[40].nic.phy80211p 	busyTime 	0.0014316049382716
scalar MyScenario.node[40].nic.mac1609_4 	ReceivedUnicastPackets 	0
scalar MyScenario.node[40].nic.mac1609_4 	ReceivedBroadcasts 	446
scalar MyScenario.node[40].nic.mac1609_4 	SentPackets 	32
scalar MyScenario.node[40].nic.mac1609_4 	SNIRLostPackets 	0
scalar MyScenario.node[40].nic.mac1609_4 	RXTXLostPackets 	0
scalar MyScenario.node[40].nic.mac1609_4 	TotalLostPackets 	0
scalar MyScenario.node[40].nic.mac1609_4 	DroppedPacketsInMac 	0
scalar MyScenario.node[40].nic.mac1609_4 	TooLittleTime 	0
scalar MyScenario.node[40].nic.mac1609_4 	TimesIntoBackoff 	32
scalar MyScenario.node[40].nic.mac1609_4 	SlotsBackoff 	52
scalar MyScenario.node[40].nic.mac1609_4 	NumInternalContention 	0
scalar MyScenario.node[40].nic.mac1609_4 	totalBusyTime 	0.049744
scalar MyScenario.node[40].veinsmobility 	startTime 	18002.2
scalar MyScenario.node[40].veinsmobility 	totalTime 	32.3
scalar MyScenario.node[40].veinsmobility 	stopTime 	18034.6
scalar MyScenario.node[40].veinsmobility 	minSpeed 	24.895065827956
scalar MyScenario.node[40].veinsmobility 	maxSpeed 	29.99947887467
scalar MyScenario.node[40].veinsmobility 	totalDistance 	901.86034342089
scalar MyScenario.node[40].veinsmobility 	totalCO2Emission 	129.80827640954
scalar MyScenario.node[45].appl 	generatedWSMs 	0
scalar MyScenario.node[45].appl 	receivedWSMs 	0
scalar MyScenario.node[45].appl 	generatedBSMs 	32
scalar MyScenario.node[45].appl 	receivedBSMs 	435
scalar MyScenario.node[45].appl 	generatedWSAs 	0
scalar MyScenario.node[45].appl 	receivedWSAs 	0
scalar MyScenario.node[45].nic.phy80211p 	busyTime 	0.0014271293375393
scalar MyScenario.node[45].nic.mac1609_4 	ReceivedUnicastPackets 	0
scalar MyScenario.node[45].nic.mac1609_4 	ReceivedBroadcasts 	435
scalar MyScenario.node[45].nic.mac1609_4 	SentPackets 	32
scalar MyScenario.node[45].nic.mac1609_4 	SNIRLostPackets 	0
scalar MyScenario.node[45].nic.mac1609_4 	RXTXLostPackets 	0
scalar MyScenario.node[45].nic.mac1609_4 	TotalLostPackets 	0
scalar MyScenario.node[45].nic.mac1609_4 	DroppedPacketsInMac 	0
scalar MyScenario.node[45].nic.mac1609_4 	TooLittleTime 	0
scalar MyScenario.node[45].nic.mac1609_4 	TimesIntoBackoff 	32
scalar MyScenario.node[45].nic.mac1609_4 	SlotsBackoff 	46
scalar MyScenario.node[45].nic.mac1609_4 	NumInternalContention 	0
scalar MyScenario.node[45].nic.mac1609_4 	totalBusyTime 	0.0486
scalar MyScenario.node[45].veinsmobility 	startTime 	18004.1
scalar MyScenario.node[45].veinsmobility 	totalTime 	31.6
scalar MyScenario.node[45].veinsmobility 	stopTime 	18035.8
scalar MyScenario.node[45].veinsmobility 	minSpeed 	24.892630907924
scalar MyScenario.node[45].veinsmobility 	maxSpeed 	33.61601512145
scalar MyScenario.node[45].veinsmobility 	totalDistance 	903.14975338986
scalar MyScenario.node[45].veinsmobility 	totalCO2Emission 	110.86069350503
scalar MyScenario.node[43].appl 	generatedWSMs 	0
scalar MyScenario.node[43].appl 	receivedWSMs 	0
scalar MyScenario.node[43].appl 	generatedBSMs 	33
scalar MyScenario.node[43].appl 	receivedBSMs 	454
scalar MyScenario.node[43].appl 	generatedWSAs 	0
scalar MyScenario.node[43].appl 	receivedWSAs 	0
scalar MyScenario.node[43].nic.phy80211p 	busyTime 	0.0014528
scalar MyScenario.node[43].nic.mac1609_4 	ReceivedUnicastPackets 	0
scalar MyScenario.node[43].nic.mac1609_4 	ReceivedBroadcasts 	454
scalar MyScenario.node[43].nic.mac1609_4 	SentPackets 	33
scalar MyScenario.node[43].nic.mac1609_4 	SNIRLostPackets 	0
scalar MyScenario.node[43].nic.mac1609_4 	RXTXLostPackets 	0
scalar MyScenario.node[43].nic.mac1609_4 	TotalLostPackets 	0
scalar MyScenario.node[43].nic.mac1609_4 	DroppedPacketsInMac 	0
scalar MyScenario.node[43].nic.mac1609_4 	TooLittleTime 	0
scalar MyScenario.node[43].nic.mac1609_4 	TimesIntoBackoff 	33
scalar MyScenario.node[43].nic.mac1609_4 	SlotsBackoff 	41
scalar MyScenario.node[43].nic.mac1609_4 	NumInternalContention 	0
scalar MyScenario.node[43].nic.mac1609_4 	totalBusyTime 	0.050681
scalar MyScenario.node[43].veinsmobility 	startTime 	18003.5
scalar MyScenario.node[43].veinsmobility 	totalTime 	32.4
scalar MyScenario.node[43].veinsmobility 	stopTime 	18036
scalar MyScenario.node[43].veinsmobility 	minSpeed 	24.967256434001
scalar MyScenario.node[43].veinsmobility 	maxSpeed 	30.053428795919
scalar MyScenario.node[43].veinsmobility 	totalDistance 	902.15714505865
scalar MyScenario.node[43].veinsmobility 	totalCO2Emission 	140.6005808429
scalar MyScenario.node[47].appl 	generatedWSMs 	0
scalar MyScenario.node[47].appl 	receivedWSMs 	0
scalar MyScenario.node[47].appl 	generatedBSMs 	32
scalar MyScenario.node[47].appl 	receivedBSMs 	433
scalar MyScenario.node[47].appl 	generatedWSAs 	0
scalar MyScenario.node[47].appl 	receivedWSAs 	0
scalar MyScenario.node[47].nic.phy80211p 	busyTime 	0.0014105
scalar MyScenario.node[47].nic.mac1609_4 	ReceivedUnicastPackets 	0
scalar MyScenario.node[47].nic.mac1609_4 	ReceivedBroadcasts 	433
scalar MyScenario.node[47].nic.mac1609_4 	SentPackets 	32
scalar MyScenario.node[47].nic.mac1609_4 	SNIRLostPackets 	1
scalar MyScenario.node[47].nic.mac1609_4 	RXTXLostPackets 	0
scalar MyScenario.node[47].nic.mac1609_4 	TotalLostPackets 	1
scalar MyScenario.node[47].nic.mac1609_4 	DroppedPacketsInMac 	0
scalar MyScenario.node[47].nic.mac1609_4 	TooLittleTime 	0
scalar MyScenario.node[47].nic.mac1609_4 	TimesIntoBackoff 	32
scalar MyScenario.node[47].nic.mac1609_4 	SlotsBackoff 	59
scalar MyScenario.node[47].nic.mac1609_4 	NumInternalContention 	0
scalar MyScenario.node[47].nic.mac1609_4 	totalBusyTime 	0.048496
scalar MyScenario.node[47].veinsmobility 	startTime 	18005.3
scalar MyScenario.node[47].veinsmobility 	totalTime 	31.9
scalar MyScenario.node[47].veinsmobility 	stopTime 	18037.3
scalar MyScenario.node[47].veinsmobility 	minSpeed 	25.041980905418
scalar MyScenario.node[47].veinsmobility 	maxSpeed 	31.88691204817
scalar MyScenario.node[47].veinsmobility 	totalDistance 	900.03145593759
scalar MyScenario.node[47].veinsmobility 	totalCO2Emission 	136.43194476051
scalar MyScenario.node[48].appl 	generatedWSMs 	0
scalar MyScenario.node[48].appl 	receivedWSMs 	0
scalar MyScenario.node[48].appl 	generatedBSMs 	32
scalar MyScenario.node[48].appl 	receivedBSMs 	449
scalar MyScenario.node[48].appl 	generatedWSAs 	0
scalar MyScenario.node[48].appl 	receivedWSAs 	0
scalar MyScenario.node[48].nic.phy80211p 	busyTime 	0.0014501863354037
scalar MyScenario.node[48].nic.mac1609_4 	ReceivedUnicastPackets 	0
scalar MyScenario.node[48].nic.mac1609_4 	ReceivedBroadcasts 	449
scalar MyScenario.node[48].nic.mac1609_4 	SentPackets 	32
scalar MyScenario.node[48].nic.mac1609_4 	SNIRLostPackets 	0
scalar MyScenario.node[48].nic.mac1609_4 	RXTXLostPackets 	0
scalar MyScenario.node[48].nic.mac1609_4 	TotalLostPackets 	0
scalar MyScenario.node[48].nic.mac1609_4 	DroppedPacketsInMac 	0
scalar MyScenario.node[48].nic.mac1609_4 	TooLittleTime 	0
scalar MyScenario.node[48].nic.mac1609_4 	TimesIntoBackoff 	32
scalar MyScenario.node[48].nic.mac1609_4 	SlotsBackoff 	49
scalar MyScenario.node[48].nic.mac1609_4 	NumInternalContention 	0
scalar MyScenario.node[48].nic.mac1609_4 	totalBusyTime 	0.050056
scalar MyScenario.node[48].veinsmobility 	startTime 	18006.5
scalar MyScenario.node[48].veinsmobility 	totalTime 	32.1
scalar MyScenario.node[48].veinsmobility 	stopTime 	18038.7
scalar MyScenario.node[48].veinsmobility 	minSpeed 	25.057890238046
scalar MyScenario.node[48].veinsmobility 	maxSpeed 	31.760829161565
scalar MyScenario.node[48].veinsmobility 	totalDistance 	903.4928154609
scalar MyScenario.node[48].veinsmobility 	totalCO2Emission 	145.36045365032
scalar MyScenario.node[52].appl 	generatedWSMs 	0
scalar MyScenario.node[52].appl 	receivedWSMs 	0
scalar MyScenario.node[52].appl 	generatedBSMs 	32
scalar MyScenario.node[52].appl 	receivedBSMs 	411
scalar MyScenario.node[52].appl 	generatedWSAs 	0
scalar MyScenario.node[52].appl 	receivedWSAs 	0
scalar MyScenario.node[52].nic.phy80211p 	busyTime 	0.0013274534161491
scalar MyScenario.node[52].nic.mac1609_4 	ReceivedUnicastPackets 	0
scalar MyScenario.node[52].nic.mac1609_4 	ReceivedBroadcasts 	411
scalar MyScenario.node[52].nic.mac1609_4 	SentPackets 	32
scalar MyScenario.node[52].nic.mac1609_4 	SNIRLostPackets 	0
scalar MyScenario.node[52].nic.mac1609_4 	RXTXLostPackets 	0
scalar MyScenario.node[52].nic.mac1609_4 	TotalLostPackets 	0
scalar MyScenario.node[52].nic.mac1609_4 	DroppedPacketsInMac 	0
scalar MyScenario.node[52].nic.mac1609_4 	TooLittleTime 	0
scalar MyScenario.node[52].nic.mac1609_4 	TimesIntoBackoff 	32
scalar MyScenario.node[52].nic.mac1609_4 	SlotsBackoff 	40
scalar MyScenario.node[52].nic.mac1609_4 	NumInternalContention 	0
scalar MyScenario.node[52].nic.mac1609_4 	totalBusyTime 	0.046104
scalar MyScenario.node[52].veinsmobility 	startTime 	18007.8
scalar MyScenario.node[52].veinsmobility 	totalTime 	32.1
scalar MyScenario.node[52].veinsmobility 	stopTime 	18040
scalar MyScenario.node[52].veinsmobility 	minSpeed 	25.039709059869
scalar MyScenario.node[52].veinsmobility 	maxSpeed 	31.563301938827
scalar MyScenario.node[52].veinsmobility 	totalDistance 	901.3771088031
scalar MyScenario.node[52].veinsmobility 	totalCO2Emission 	145.48233385899
scalar MyScenario.node[53].appl 	generatedWSMs 	0
scalar MyScenario.node[53].appl 	receivedWSMs 	0
scalar MyScenario.node[53].appl 	generatedBSMs 	26
scalar MyScenario.node[53].appl 	receivedBSMs 	312
scalar MyScenario.node[53].appl 	generatedWSAs 	0
scalar MyScenario.node[53].appl 	receivedWSAs 	0
scalar MyScenario.node[53].nic.phy80211p 	busyTime 	0.0012576744186047
scalar MyScenario.node[53].nic.mac1609_4 	ReceivedUnicastPackets 	0
scalar MyScenario.node[53].nic.mac1609_4 	ReceivedBroadcasts 	312
scalar MyScenario.node[53].nic.mac1609_4 	SentPackets 	26
scalar MyScenario.node[53].nic.mac1609_4 	SNIRLostPackets 	0
scalar MyScenario.node[53].nic.mac1609_4 	RXTXLostPackets 	0
scalar MyScenario.node[53].nic.mac1609_4 	TotalLostPackets 	0
scalar MyScenario.node[53].nic.mac1609_4 	DroppedPacketsInMac 	0
scalar MyScenario.node[53].nic.mac1609_4 	TooLittleTime 	0
scalar MyScenario.node[53].nic.mac1609_4 	TimesIntoBackoff 	26
scalar MyScenario.node[53].nic.mac1609_4 	SlotsBackoff 	36
scalar MyScenario.node[53].nic.mac1609_4 	NumInternalContention 	0
scalar MyScenario.node[53].nic.mac1609_4 	totalBusyTime 	0.035178
scalar MyScenario.node[53].veinsmobility 	startTime 	18016
scalar MyScenario.node[53].veinsmobility 	totalTime 	25.7
scalar MyScenario.node[53].veinsmobility 	stopTime 	18041.8
scalar MyScenario.node[53].veinsmobility 	minSpeed 	27.109680694132
scalar MyScenario.node[53].veinsmobility 	maxSpeed 	39.780302393985
scalar MyScenario.node[53].veinsmobility 	totalDistance 	903.58488303377
scalar MyScenario.node[53].veinsmobility 	totalCO2Emission 	122.8683596291
scalar MyScenario.node[57].appl 	generatedWSMs 	0
scalar MyScenario.node[57].appl 	receivedWSMs 	0
scalar MyScenario.node[57].appl 	generatedBSMs 	22
scalar MyScenario.node[57].appl 	receivedBSMs 	46
scalar MyScenario.node[57].appl 	generatedWSAs 	0
scalar MyScenario.node[57].appl 	receivedWSAs 	0
scalar MyScenario.node[57].nic.phy80211p 	busyTime 	0.00021745454545455
scalar MyScenario.node[57].nic.mac1609_4 	ReceivedUnicastPackets 	0
scalar MyScenario.node[57].nic.mac1609_4 	ReceivedBroadcasts 	46
scalar MyScenario.node[57].nic.mac1609_4 	SentPackets 	22
scalar MyScenario.node[57].nic.mac1609_4 	SNIRLostPackets 	0
scalar MyScenario.node[57].nic.mac1609_4 	RXTXLostPackets 	0
scalar MyScenario.node[57].nic.mac1609_4 	TotalLostPackets 	0
scalar MyScenario.node[57].nic.mac1609_4 	DroppedPacketsInMac 	0
scalar MyScenario.node[57].nic.mac1609_4 	TooLittleTime 	0
scalar MyScenario.node[57].nic.mac1609_4 	TimesIntoBackoff 	22
scalar MyScenario.node[57].nic.mac1609_4 	SlotsBackoff 	28
scalar MyScenario.node[57].nic.mac1609_4 	NumInternalContention 	0
scalar MyScenario.node[57].nic.mac1609_4 	totalBusyTime 	0.007094
scalar MyScenario.node[57].veinsmobility 	startTime 	18020.9
scalar MyScenario.node[57].veinsmobility 	totalTime 	21.9
scalar MyScenario.node[57].veinsmobility 	stopTime 	18042.9
scalar MyScenario.node[57].veinsmobility 	minSpeed 	3.470563531075
scalar MyScenario.node[57].veinsmobility 	maxSpeed 	17.947393921427
scalar MyScenario.node[57].veinsmobility 	totalDistance 	302.67935789971
scalar MyScenario.node[57].veinsmobility 	totalCO2Emission 	71.474260328924
scalar MyScenario.node[54].appl 	generatedWSMs 	0
scalar MyScenario.node[54].appl 	receivedWSMs 	0
scalar MyScenario.node[54].appl 	generatedBSMs 	27
scalar MyScenario.node[54].appl 	receivedBSMs 	301
scalar MyScenario.node[54].appl 	generatedWSAs 	0
scalar MyScenario.node[54].appl 	receivedWSAs 	0
scalar MyScenario.node[54].nic.phy80211p 	busyTime 	0.0011383272727273
scalar MyScenario.node[54].nic.mac1609_4 	ReceivedUnicastPackets 	0
scalar MyScenario.node[54].nic.mac1609_4 	ReceivedBroadcasts 	301
scalar MyScenario.node[54].nic.mac1609_4 	SentPackets 	27
scalar MyScenario.node[54].nic.mac1609_4 	SNIRLostPackets 	0
scalar MyScenario.node[54].nic.mac1609_4 	RXTXLostPackets 	0
scalar MyScenario.node[54].nic.mac1609_4 	TotalLostPackets 	0
scalar MyScenario.node[54].nic.mac1609_4 	DroppedPacketsInMac 	0
scalar MyScenario.node[54].nic.mac1609_4 	TooLittleTime 	0
scalar MyScenario.node[54].nic.mac1609_4 	TimesIntoBackoff 	27
scalar MyScenario.node[54].nic.mac1609_4 	SlotsBackoff 	36
scalar MyScenario.node[54].nic.mac1609_4 	NumInternalContention 	0
scalar MyScenario.node[54].nic.mac1609_4 	totalBusyTime 	0.034139
scalar MyScenario.node[54].veinsmobility 	startTime 	18016.6
scalar MyScenario.node[54].veinsmobility 	totalTime 	27.4
scalar MyScenario.node[54].veinsmobility 	stopTime 	18044.1
scalar MyScenario.node[54].veinsmobility 	minSpeed 	32.893151452045
scalar MyScenario.node[54].veinsmobility 	maxSpeed 	33.032724601768
scalar MyScenario.node[54].veinsmobility 	totalDistance 	902.12694405339
scalar MyScenario.node[54].veinsmobility 	totalCO2Emission 	169.90367076778
scalar MyScenario.node[58].appl 	generatedWSMs 	0
scalar MyScenario.node[58].appl 	receivedWSMs 	0
scalar MyScenario.node[58].appl 	generatedBSMs 	26
scalar MyScenario.node[58].appl 	receivedBSMs 	229
scalar MyScenario.node[58].appl 	generatedWSAs 	0
scalar MyScenario.node[58].appl 	receivedWSAs 	0
scalar MyScenario.node[58].nic.phy80211p 	busyTime 	0.0009231007751938
scalar MyScenario.node[58].nic.mac1609_4 	ReceivedUnicastPackets 	0
scalar MyScenario.node[58].nic.mac1609_4 	ReceivedBroadcasts 	229
scalar MyScenario.node[58].nic.mac1609_4 	SentPackets 	26
scalar MyScenario.node[58].nic.mac1609_4 	SNIRLostPackets 	0
scalar MyScenario.node[58].nic.mac1609_4 	RXTXLostPackets 	0
scalar MyScenario.node[58].nic.mac1609_4 	TotalLostPackets 	0
scalar MyScenario.node[58].nic.mac1609_4 	DroppedPacketsInMac 	0
scalar MyScenario.node[58].nic.mac1609_4 	TooLittleTime 	0
scalar MyScenario.node[58].nic.mac1609_4 	TimesIntoBackoff 	26
scalar MyScenario.node[58].nic.mac1609_4 	SlotsBackoff 	33
scalar MyScenario.node[58].nic.mac1609_4 	NumInternalContention 	0
scalar MyScenario.node[58].nic.mac1609_4 	totalBusyTime 	0.026546
scalar MyScenario.node[58].veinsmobility 	startTime 	18021.1
scalar MyScenario.node[58].veinsmobility 	totalTime 	25.7
scalar MyScenario.node[58].veinsmobility 	stopTime 	18046.9
scalar MyScenario.node[58].veinsmobility 	minSpeed 	34.958202507127
scalar MyScenario.node[58].veinsmobility 	maxSpeed 	35.09799395792
scalar MyScenario.node[58].veinsmobility 	totalDistance 	900.19313468648
scalar MyScenario.node[58].veinsmobility 	totalCO2Emission 	174.6159951044
scalar MyScenario.node[56].appl 	generatedWSMs 	0
scalar MyScenario.node[56].appl 	receivedWSMs 	0
scalar MyScenario.node[56].appl 	generatedBSMs 	28
scalar MyScenario.node[56].appl 	receivedBSMs 	255
scalar MyScenario.node[56].appl 	generatedWSAs 	0
scalar MyScenario.node[56].appl 	receivedWSAs 	0
scalar MyScenario.node[56].nic.phy80211p 	busyTime 	0.00096086956521739
scalar MyScenario.node[56].nic.mac1609_4 	ReceivedUnicastPackets 	0
scalar MyScenario.node[56].nic.mac1609_4 	ReceivedBroadcasts 	255
scalar MyScenario.node[56].nic.mac1609_4 	SentPackets 	28
scalar MyScenario.node[56].nic.mac1609_4 	SNIRLostPackets 	0
scalar MyScenario.node[56].nic.mac1609_4 	RXTXLostPackets 	0
scalar MyScenario.node[56].nic.mac1609_4 	TotalLostPackets 	0
scalar MyScenario.node[56].nic.mac1609_4 	DroppedPacketsInMac 	0
scalar MyScenario.node[56].nic.mac1609_4 	TooLittleTime 	0
scalar MyScenario.node[56].nic.mac1609_4 	TimesIntoBackoff 	28
scalar MyScenario.node[56].nic.mac1609_4 	SlotsBackoff 	49
scalar MyScenario.node[56].nic.mac1609_4 	NumInternalContention 	0
scalar MyScenario.node[56].nic.mac1609_4 	totalBusyTime 	0.02946
scalar MyScenario.node[56].veinsmobility 	startTime 	18019.9
scalar MyScenario.node[56].veinsmobility 	totalTime 	27.5
scalar MyScenario.node[56].veinsmobility 	stopTime 	18047.5
scalar MyScenario.node[56].veinsmobility 	minSpeed 	32.758154106984
scalar MyScenario.node[56].veinsmobility 	maxSpeed 	32.907499369671
scalar MyScenario.node[56].veinsmobility 	totalDistance 	901.82068420227
scalar MyScenario.node[56].veinsmobility 	totalCO2Emission 	169.34834690918
scalar MyScenario.node[59].appl 	generatedWSMs 	0
scalar MyScenario.node[59].appl 	receivedWSMs 	0
scalar MyScenario.node[59].appl 	generatedBSMs 	27
scalar MyScenario.node[59].appl 	receivedBSMs 	226
scalar MyScenario.node[59].appl 	generatedWSAs 	0
scalar MyScenario.node[59].appl 	receivedWSAs 	0
scalar MyScenario.node[59].nic.phy80211p 	busyTime 	0.00087375464684015
scalar MyScenario.node[59].nic.mac1609_4 	ReceivedUnicastPackets 	0
scalar MyScenario.node[59].nic.mac1609_4 	ReceivedBroadcasts 	226
scalar MyScenario.node[59].nic.mac1609_4 	SentPackets 	27
scalar MyScenario.node[59].nic.mac1609_4 	SNIRLostPackets 	0
scalar MyScenario.node[59].nic.mac1609_4 	RXTXLostPackets 	0
scalar MyScenario.node[59].nic.mac1609_4 	TotalLostPackets 	0
scalar MyScenario.node[59].nic.mac1609_4 	DroppedPacketsInMac 	0
scalar MyScenario.node[59].nic.mac1609_4 	TooLittleTime 	0
scalar MyScenario.node[59].nic.mac1609_4 	TimesIntoBackoff 	27
scalar MyScenario.node[59].nic.mac1609_4 	SlotsBackoff 	48
scalar MyScenario.node[59].nic.mac1609_4 	NumInternalContention 	0
scalar MyScenario.node[59].nic.mac1609_4 	totalBusyTime 	0.026339
scalar MyScenario.node[59].veinsmobility 	startTime 	18021.8
scalar MyScenario.node[59].veinsmobility 	totalTime 	26.8
scalar MyScenario.node[59].veinsmobility 	stopTime 	18048.7
scalar MyScenario.node[59].veinsmobility 	minSpeed 	32.844859178885
scalar MyScenario.node[59].veinsmobility 	maxSpeed 	35.552019299656
scalar MyScenario.node[59].veinsmobility 	totalDistance 	900.63268062799
scalar MyScenario.node[59].veinsmobility 	totalCO2Emission 	162.54375647247
scalar MyScenario.node[63].appl 	generatedWSMs 	0
scalar MyScenario.node[63].appl 	receivedWSMs 	0
scalar MyScenario.node[63].appl 	generatedBSMs 	23
scalar MyScenario.node[63].appl 	receivedBSMs 	136
scalar MyScenario.node[63].appl 	generatedWSAs 	0
scalar MyScenario.node[63].appl 	receivedWSAs 	0
scalar MyScenario.node[63].nic.phy80211p 	busyTime 	0.00061495652173913
scalar MyScenario.node[63].nic.mac1609_4 	ReceivedUnicastPackets 	0
scalar MyScenario.node[63].nic.mac1609_4 	ReceivedBroadcasts 	136
scalar MyScenario.node[63].nic.mac1609_4 	SentPackets 	23
scalar MyScenario.node[63].nic.mac1609_4 	SNIRLostPackets 	0
scalar MyScenario.node[63].nic.mac1609_4 	RXTXLostPackets 	0
scalar MyScenario.node[63].nic.mac1609_4 	TotalLostPackets 	0
scalar MyScenario.node[63].nic.mac1609_4 	DroppedPacketsInMac 	0
scalar MyScenario.node[63].nic.mac1609_4 	TooLittleTime 	0
scalar MyScenario.node[63].nic.mac1609_4 	TimesIntoBackoff 	23
scalar MyScenario.node[63].nic.mac1609_4 	SlotsBackoff 	32
scalar MyScenario.node[63].nic.mac1609_4 	NumInternalContention 	0
scalar MyScenario.node[63].nic.mac1609_4 	totalBusyTime 	0.016559
scalar MyScenario.node[63].veinsmobility 	startTime 	18027.4
scalar MyScenario.node[63].veinsmobility 	totalTime 	22.9
scalar MyScenario.node[63].veinsmobility 	stopTime 	18050.4
scalar MyScenario.node[63].veinsmobility 	minSpeed 	35.012377105156
scalar MyScenario.node[63].veinsmobility 	maxSpeed 	41.699312228714
scalar MyScenario.node[63].veinsmobility 	totalDistance 	900.43860596925
scalar MyScenario.node[63].veinsmobility 	totalCO2Emission 	159.06416358352
scalar MyScenario.node[61].appl 	generatedWSMs 	0
scalar MyScenario.node[61].appl 	receivedWSMs 	0
scalar MyScenario.node[61].appl 	generatedBSMs 	25
scalar MyScenario.node[61].appl 	receivedBSMs 	47
scalar MyScenario.node[61].appl 	generatedWSAs 	0
scalar MyScenario.node[61].appl 	receivedWSAs 	0
scalar MyScenario.node[61].nic.phy80211p 	busyTime 	0.00019396825396825
scalar MyScenario.node[61].nic.mac1609_4 	ReceivedUnicastPackets 	0
scalar MyScenario.node[61].nic.mac1609_4 	ReceivedBroadcasts 	47
scalar MyScenario.node[61].nic.mac1609_4 	SentPackets 	25
scalar MyScenario.node[61].nic.mac1609_4 	SNIRLostPackets 	0
scalar MyScenario.node[61].nic.mac1609_4 	RXTXLostPackets 	0
scalar MyScenario.node[61].nic.mac1609_4 	TotalLostPackets 	0
scalar MyScenario.node[61].nic.mac1609_4 	DroppedPacketsInMac 	0
scalar MyScenario.node[61].nic.mac1609_4 	TooLittleTime 	0
scalar MyScenario.node[61].nic.mac1609_4 	TimesIntoBackoff 	25
scalar MyScenario.node[61].nic.mac1609_4 	SlotsBackoff 	28
scalar MyScenario.node[61].nic.mac1609_4 	NumInternalContention 	0
scalar MyScenario.node[61].nic.mac1609_4 	totalBusyTime 	0.007513
scalar MyScenario.node[61].veinsmobility 	startTime 	18025.7
scalar MyScenario.node[61].veinsmobility 	totalTime 	25.1
scalar MyScenario.node[61].veinsmobility 	stopTime 	18050.9
scalar MyScenario.node[61].veinsmobility 	minSpeed 	3.2593751814079
scalar MyScenario.node[61].veinsmobility 	maxSpeed 	14.433048543112
scalar MyScenario.node[61].veinsmobility 	totalDistance 	301.92847517448
scalar MyScenario.node[61].veinsmobility 	totalCO2Emission 	65.664646700809
scalar MyScenario.node[64].appl 	generatedWSMs 	0
scalar MyScenario.node[64].appl 	receivedWSMs 	0
scalar MyScenario.node[64].appl 	generatedBSMs 	25
scalar MyScenario.node[64].appl 	receivedBSMs 	162
scalar MyScenario.node[64].appl 	generatedWSAs 	0
scalar MyScenario.node[64].appl 	receivedWSAs 	0
scalar MyScenario.node[64].nic.phy80211p 	busyTime 	0.00065556420233463
scalar MyScenario.node[64].nic.mac1609_4 	ReceivedUnicastPackets 	0
scalar MyScenario.node[64].nic.mac1609_4 	ReceivedBroadcasts 	162
scalar MyScenario.node[64].nic.mac1609_4 	SentPackets 	25
scalar MyScenario.node[64].nic.mac1609_4 	SNIRLostPackets 	0
scalar MyScenario.node[64].nic.mac1609_4 	RXTXLostPackets 	0
scalar MyScenario.node[64].nic.mac1609_4 	TotalLostPackets 	0
scalar MyScenario.node[64].nic.mac1609_4 	DroppedPacketsInMac 	0
scalar MyScenario.node[64].nic.mac1609_4 	TooLittleTime 	0
scalar MyScenario.node[64].nic.mac1609_4 	TimesIntoBackoff 	25
scalar MyScenario.node[64].nic.mac1609_4 	SlotsBackoff 	31
scalar MyScenario.node[64].nic.mac1609_4 	NumInternalContention 	0
scalar MyScenario.node[64].nic.mac1609_4 	totalBusyTime 	0.019473
scalar MyScenario.node[64].veinsmobility 	startTime 	18035
scalar MyScenario.node[64].veinsmobility 	totalTime 	25.6
scalar MyScenario.node[64].veinsmobility 	stopTime 	18060.7
scalar MyScenario.node[64].veinsmobility 	minSpeed 	35.08316949899
scalar MyScenario.node[64].veinsmobility 	maxSpeed 	35.212386611387
scalar MyScenario.node[64].veinsmobility 	totalDistance 	898.86357445562
scalar MyScenario.node[64].veinsmobility 	totalCO2Emission 	174.79647105083
scalar MyScenario.node[79].appl 	generatedWSMs 	0
scalar MyScenario.node[79].appl 	receivedWSMs 	0
scalar MyScenario.node[79].appl 	generatedBSMs 	2
scalar MyScenario.node[79].appl 	receivedBSMs 	23
scalar MyScenario.node[79].appl 	generatedWSAs 	0
scalar MyScenario.node[79].appl 	receivedWSAs 	0
scalar MyScenario.node[79].nic.phy80211p 	busyTime 	0.00104
scalar MyScenario.node[79].nic.mac1609_4 	ReceivedUnicastPackets 	0
scalar MyScenario.node[79].nic.mac1609_4 	ReceivedBroadcasts 	23
scalar MyScenario.node[79].nic.mac1609_4 	SentPackets 	2
scalar MyScenario.node[79].nic.mac1609_4 	SNIRLostPackets 	0
scalar MyScenario.node[79].nic.mac1609_4 	RXTXLostPackets 	0
scalar MyScenario.node[79].nic.mac1609_4 	TotalLostPackets 	0
scalar MyScenario.node[79].nic.mac1609_4 	DroppedPacketsInMac 	0
scalar MyScenario.node[79].nic.mac1609_4 	TooLittleTime 	0
scalar MyScenario.node[79].nic.mac1609_4 	TimesIntoBackoff 	2
scalar MyScenario.node[79].nic.mac1609_4 	SlotsBackoff 	1
scalar MyScenario.node[79].nic.mac1609_4 	NumInternalContention 	0
scalar MyScenario.node[79].nic.mac1609_4 	totalBusyTime 	0.002602
scalar MyScenario.node[79].veinsmobility 	startTime 	18059.1
scalar MyScenario.node[79].veinsmobility 	totalTime 	2.2
scalar MyScenario.node[79].veinsmobility 	stopTime 	18061.4
scalar MyScenario.node[79].veinsmobility 	minSpeed 	0.25391008003498
scalar MyScenario.node[79].veinsmobility 	maxSpeed 	4.5453223064615
scalar MyScenario.node[79].veinsmobility 	totalDistance 	5.5306264046253
scalar MyScenario.node[79].veinsmobility 	totalCO2Emission 	5.1938166886797
scalar MyScenario.node[65].appl 	generatedWSMs 	0
scalar MyScenario.node[65].appl 	receivedWSMs 	0
scalar MyScenario.node[65].appl 	generatedBSMs 	26
scalar MyScenario.node[65].appl 	receivedBSMs 	157
scalar MyScenario.node[65].appl 	generatedWSAs 	0
scalar MyScenario.node[65].appl 	receivedWSAs 	0
scalar MyScenario.node[65].nic.phy80211p 	busyTime 	0.00065102362204724
scalar MyScenario.node[65].nic.mac1609_4 	ReceivedUnicastPackets 	0
scalar MyScenario.node[65].nic.mac1609_4 	ReceivedBroadcasts 	157
scalar MyScenario.node[65].nic.mac1609_4 	SentPackets 	26
scalar MyScenario.node[65].nic.mac1609_4 	SNIRLostPackets 	2
scalar MyScenario.node[65].nic.mac1609_4 	RXTXLostPackets 	0
scalar MyScenario.node[65].nic.mac1609_4 	TotalLostPackets 	2
scalar MyScenario.node[65].nic.mac1609_4 	DroppedPacketsInMac 	0
scalar MyScenario.node[65].nic.mac1609_4 	TooLittleTime 	0
scalar MyScenario.node[65].nic.mac1609_4 	TimesIntoBackoff 	26
scalar MyScenario.node[65].nic.mac1609_4 	SlotsBackoff 	40
scalar MyScenario.node[65].nic.mac1609_4 	NumInternalContention 	0
scalar MyScenario.node[65].nic.mac1609_4 	totalBusyTime 	0.019266
scalar MyScenario.node[65].veinsmobility 	startTime 	18036.6
scalar MyScenario.node[65].veinsmobility 	totalTime 	25.3
scalar MyScenario.node[65].veinsmobility 	stopTime 	18062
scalar MyScenario.node[65].veinsmobility 	minSpeed 	35.127332996496
scalar MyScenario.node[65].veinsmobility 	maxSpeed 	36.574232087969
scalar MyScenario.node[65].veinsmobility 	totalDistance 	900.31668785669
scalar MyScenario.node[65].veinsmobility 	totalCO2Emission 	173.84131499719
scalar MyScenario.node[34].appl 	generatedWSMs 	0
scalar MyScenario.node[34].appl 	receivedWSMs 	0
scalar MyScenario.node[34].appl 	generatedBSMs 	63
scalar MyScenario.node[34].appl 	receivedBSMs 	616
scalar MyScenario.node[34].appl 	generatedWSAs 	0
scalar MyScenario.node[34].appl 	receivedWSAs 	0
scalar MyScenario.node[34].nic.phy80211p 	busyTime 	0.001020127388535
scalar MyScenario.node[34].nic.mac1609_4 	ReceivedUnicastPackets 	0
scalar MyScenario.node[34].nic.mac1609_4 	ReceivedBroadcasts 	616
scalar MyScenario.node[34].nic.mac1609_4 	SentPackets 	63
scalar MyScenario.node[34].nic.mac1609_4 	SNIRLostPackets 	0
scalar MyScenario.node[34].nic.mac1609_4 	RXTXLostPackets 	0
scalar MyScenario.node[34].nic.mac1609_4 	TotalLostPackets 	0
scalar MyScenario.node[34].nic.mac1609_4 	DroppedPacketsInMac 	0
scalar MyScenario.node[34].nic.mac1609_4 	TooLittleTime 	0
scalar MyScenario.node[34].nic.mac1609_4 	TimesIntoBackoff 	63
scalar MyScenario.node[34].nic.mac1609_4 	SlotsBackoff 	83
scalar MyScenario.node[34].nic.mac1609_4 	NumInternalContention 	0
scalar MyScenario.node[34].nic.mac1609_4 	totalBusyTime 	0.070679
scalar MyScenario.node[34].veinsmobility 	startTime 	18000
scalar MyScenario.node[34].veinsmobility 	totalTime 	62.7
scalar MyScenario.node[34].veinsmobility 	stopTime 	18062.8
scalar MyScenario.node[34].veinsmobility 	minSpeed 	4.5364038614928e-14
scalar MyScenario.node[34].veinsmobility 	maxSpeed 	20.05065944913
scalar MyScenario.node[34].veinsmobility 	totalDistance 	330.79496244303
scalar MyScenario.node[34].veinsmobility 	totalCO2Emission 	163.71349124428
scalar MyScenario.node[30].appl 	generatedWSMs 	0
scalar MyScenario.node[30].appl 	receivedWSMs 	0
scalar MyScenario.node[30].appl 	generatedBSMs 	64
scalar MyScenario.node[30].appl 	receivedBSMs 	508
scalar MyScenario.node[30].appl 	generatedWSAs 	0
scalar MyScenario.node[30].appl 	receivedWSAs 	0
scalar MyScenario.node[30].nic.phy80211p 	busyTime 	0.00083331230283912
scalar MyScenario.node[30].nic.mac1609_4 	ReceivedUnicastPackets 	0
scalar MyScenario.node[30].nic.mac1609_4 	ReceivedBroadcasts 	508
scalar MyScenario.node[30].nic.mac1609_4 	SentPackets 	64
scalar MyScenario.node[30].nic.mac1609_4 	SNIRLostPackets 	0
scalar MyScenario.node[30].nic.mac1609_4 	RXTXLostPackets 	0
scalar MyScenario.node[30].nic.mac1609_4 	TotalLostPackets 	0
scalar MyScenario.node[30].nic.mac1609_4 	DroppedPacketsInMac 	0
scalar MyScenario.node[30].nic.mac1609_4 	TooLittleTime 	0
scalar MyScenario.node[30].nic.mac1609_4 	TimesIntoBackoff 	64
scalar MyScenario.node[30].nic.mac1609_4 	SlotsBackoff 	93
scalar MyScenario.node[30].nic.mac1609_4 	NumInternalContention 	0
scalar MyScenario.node[30].nic.mac1609_4 	totalBusyTime 	0.059552
scalar MyScenario.node[30].veinsmobility 	startTime 	18000
scalar MyScenario.node[30].veinsmobility 	totalTime 	63.3
scalar MyScenario.node[30].veinsmobility 	stopTime 	18063.4
scalar MyScenario.node[30].veinsmobility 	minSpeed 	0
scalar MyScenario.node[30].veinsmobility 	maxSpeed 	14.851087604541
scalar MyScenario.node[30].veinsmobility 	totalDistance 	513.64100968692
scalar MyScenario.node[30].veinsmobility 	totalCO2Emission 	137.44284942847
scalar MyScenario.node[67].appl 	generatedWSMs 	0
scalar MyScenario.node[67].appl 	receivedWSMs 	0
scalar MyScenario.node[67].appl 	generatedBSMs 	21
scalar MyScenario.node[67].appl 	receivedBSMs 	114
scalar MyScenario.node[67].appl 	generatedWSAs 	0
scalar MyScenario.node[67].appl 	receivedWSAs 	0
scalar MyScenario.node[67].nic.phy80211p 	busyTime 	0.00056457142857143
scalar MyScenario.node[67].nic.mac1609_4 	ReceivedUnicastPackets 	0
scalar MyScenario.node[67].nic.mac1609_4 	ReceivedBroadcasts 	114
scalar MyScenario.node[67].nic.mac1609_4 	SentPackets 	21
scalar MyScenario.node[67].nic.mac1609_4 	SNIRLostPackets 	0
scalar MyScenario.node[67].nic.mac1609_4 	RXTXLostPackets 	0
scalar MyScenario.node[67].nic.mac1609_4 	TotalLostPackets 	0
scalar MyScenario.node[67].nic.mac1609_4 	DroppedPacketsInMac 	0
scalar MyScenario.node[67].nic.mac1609_4 	TooLittleTime 	0
scalar MyScenario.node[67].nic.mac1609_4 	TimesIntoBackoff 	21
scalar MyScenario.node[67].nic.mac1609_4 	SlotsBackoff 	24
scalar MyScenario.node[67].nic.mac1609_4 	NumInternalContention 	0
scalar MyScenario.node[67].nic.mac1609_4 	totalBusyTime 	0.014061
scalar MyScenario.node[67].veinsmobility 	startTime 	18044.2
scalar MyScenario.node[67].veinsmobility 	totalTime 	20.9
scalar MyScenario.node[67].veinsmobility 	stopTime 	18065.2
scalar MyScenario.node[67].veinsmobility 	minSpeed 	42.879902419114
scalar MyScenario.node[67].veinsmobility 	maxSpeed 	43.011975109756
scalar MyScenario.node[67].veinsmobility 	totalDistance 	896.44960692775
scalar MyScenario.node[67].veinsmobility 	totalCO2Emission 	218.09006070396
scalar MyScenario.node[11].appl 	generatedWSMs 	0
scalar MyScenario.node[11].appl 	receivedWSMs 	0
scalar MyScenario.node[11].appl 	generatedBSMs 	66
scalar MyScenario.node[11].appl 	receivedBSMs 	658
scalar MyScenario.node[11].appl 	generatedWSAs 	0
scalar MyScenario.node[11].appl 	receivedWSAs 	0
scalar MyScenario.node[11].nic.phy80211p 	busyTime 	0.0010431707317073
scalar MyScenario.node[11].nic.mac1609_4 	ReceivedUnicastPackets 	0
scalar MyScenario.node[11].nic.mac1609_4 	ReceivedBroadcasts 	658
scalar MyScenario.node[11].nic.mac1609_4 	SentPackets 	66
scalar MyScenario.node[11].nic.mac1609_4 	SNIRLostPackets 	0
scalar MyScenario.node[11].nic.mac1609_4 	RXTXLostPackets 	0
scalar MyScenario.node[11].nic.mac1609_4 	TotalLostPackets 	0
scalar MyScenario.node[11].nic.mac1609_4 	DroppedPacketsInMac 	0
scalar MyScenario.node[11].nic.mac1609_4 	TooLittleTime 	0
scalar MyScenario.node[11].nic.mac1609_4 	TimesIntoBackoff 	66
scalar MyScenario.node[11].nic.mac1609_4 	SlotsBackoff 	101
scalar MyScenario.node[11].nic.mac1609_4 	NumInternalContention 	0
scalar MyScenario.node[11].nic.mac1609_4 	totalBusyTime 	0.075362
scalar MyScenario.node[11].veinsmobility 	startTime 	18000
scalar MyScenario.node[11].veinsmobility 	totalTime 	65.5
scalar MyScenario.node[11].veinsmobility 	stopTime 	18065.6
scalar MyScenario.node[11].veinsmobility 	minSpeed 	4.5370012868139e-14
scalar MyScenario.node[11].veinsmobility 	maxSpeed 	13.156544440395
scalar MyScenario.node[11].veinsmobility 	totalDistance 	325.04345697162
scalar MyScenario.node[11].veinsmobility 	totalCO2Emission 	137.23415360025
scalar MyScenario.node[14].appl 	generatedWSMs 	0
scalar MyScenario.node[14].appl 	receivedWSMs 	0
scalar MyScenario.node[14].appl 	generatedBSMs 	69
scalar MyScenario.node[14].appl 	receivedBSMs 	692
scalar MyScenario.node[14].appl 	generatedWSAs 	0
scalar MyScenario.node[14].appl 	receivedWSAs 	0
scalar MyScenario.node[14].nic.phy80211p 	busyTime 	0.0010506277372263
scalar MyScenario.node[14].nic.mac1609_4 	ReceivedUnicastPackets 	0
scalar MyScenario.node[14].nic.mac1609_4 	ReceivedBroadcasts 	692
scalar MyScenario.node[14].nic.mac1609_4 	SentPackets 	69
scalar MyScenario.node[14].nic.mac1609_4 	SNIRLostPackets 	0
scalar MyScenario.node[14].nic.mac1609_4 	RXTXLostPackets 	0
scalar MyScenario.node[14].nic.mac1609_4 	TotalLostPackets 	0
scalar MyScenario.node[14].nic.mac1609_4 	DroppedPacketsInMac 	0
scalar MyScenario.node[14].nic.mac1609_4 	TooLittleTime 	0
scalar MyScenario.node[14].nic.mac1609_4 	TimesIntoBackoff 	69
scalar MyScenario.node[14].nic.mac1609_4 	SlotsBackoff 	95
scalar MyScenario.node[14].nic.mac1609_4 	NumInternalContention 	0
scalar MyScenario.node[14].nic.mac1609_4 	totalBusyTime 	0.079213
scalar MyScenario.node[14].veinsmobility 	startTime 	18000
scalar MyScenario.node[14].veinsmobility 	totalTime 	68.4
scalar MyScenario.node[14].veinsmobility 	stopTime 	18068.5
scalar MyScenario.node[14].veinsmobility 	minSpeed 	0
scalar MyScenario.node[14].veinsmobility 	maxSpeed 	13.839590440647
scalar MyScenario.node[14].veinsmobility 	totalDistance 	334.40963269462
scalar MyScenario.node[14].veinsmobility 	totalCO2Emission 	136.30562084132
scalar MyScenario.node[71].appl 	generatedWSMs 	0
scalar MyScenario.node[71].appl 	receivedWSMs 	0
scalar MyScenario.node[71].appl 	generatedBSMs 	27
scalar MyScenario.node[71].appl 	receivedBSMs 	188
scalar MyScenario.node[71].appl 	generatedWSAs 	0
scalar MyScenario.node[71].appl 	receivedWSAs 	0
scalar MyScenario.node[71].nic.phy80211p 	busyTime 	0.00072684014869888
scalar MyScenario.node[71].nic.mac1609_4 	ReceivedUnicastPackets 	0
scalar MyScenario.node[71].nic.mac1609_4 	ReceivedBroadcasts 	188
scalar MyScenario.node[71].nic.mac1609_4 	SentPackets 	27
scalar MyScenario.node[71].nic.mac1609_4 	SNIRLostPackets 	0
scalar MyScenario.node[71].nic.mac1609_4 	RXTXLostPackets 	0
scalar MyScenario.node[71].nic.mac1609_4 	TotalLostPackets 	0
scalar MyScenario.node[71].nic.mac1609_4 	DroppedPacketsInMac 	0
scalar MyScenario.node[71].nic.mac1609_4 	TooLittleTime 	0
scalar MyScenario.node[71].nic.mac1609_4 	TimesIntoBackoff 	27
scalar MyScenario.node[71].nic.mac1609_4 	SlotsBackoff 	34
scalar MyScenario.node[71].nic.mac1609_4 	NumInternalContention 	0
scalar MyScenario.node[71].nic.mac1609_4 	totalBusyTime 	0.022387
scalar MyScenario.node[71].veinsmobility 	startTime 	18049.7
scalar MyScenario.node[71].veinsmobility 	totalTime 	26.8
scalar MyScenario.node[71].veinsmobility 	stopTime 	18076.6
scalar MyScenario.node[71].veinsmobility 	minSpeed 	33.450044056149
scalar MyScenario.node[71].veinsmobility 	maxSpeed 	33.599467300046
scalar MyScenario.node[71].veinsmobility 	totalDistance 	899.41857281066
scalar MyScenario.node[71].veinsmobility 	totalCO2Emission 	167.86219154528
scalar MyScenario.node[70].appl 	generatedWSMs 	0
scalar MyScenario.node[70].appl 	receivedWSMs 	0
scalar MyScenario.node[70].appl 	generatedBSMs 	27
scalar MyScenario.node[70].appl 	receivedBSMs 	182
scalar MyScenario.node[70].appl 	generatedWSAs 	0
scalar MyScenario.node[70].appl 	receivedWSAs 	0
scalar MyScenario.node[70].nic.phy80211p 	busyTime 	0.00069333333333333
scalar MyScenario.node[70].nic.mac1609_4 	ReceivedUnicastPackets 	0
scalar MyScenario.node[70].nic.mac1609_4 	ReceivedBroadcasts 	182
scalar MyScenario.node[70].nic.mac1609_4 	SentPackets 	27
scalar MyScenario.node[70].nic.mac1609_4 	SNIRLostPackets 	0
scalar MyScenario.node[70].nic.mac1609_4 	RXTXLostPackets 	0
scalar MyScenario.node[70].nic.mac1609_4 	TotalLostPackets 	0
scalar MyScenario.node[70].nic.mac1609_4 	DroppedPacketsInMac 	0
scalar MyScenario.node[70].nic.mac1609_4 	TooLittleTime 	0
scalar MyScenario.node[70].nic.mac1609_4 	TimesIntoBackoff 	27
scalar MyScenario.node[70].nic.mac1609_4 	SlotsBackoff 	39
scalar MyScenario.node[70].nic.mac1609_4 	NumInternalContention 	0
scalar MyScenario.node[70].nic.mac1609_4 	totalBusyTime 	0.021763
scalar MyScenario.node[70].veinsmobility 	startTime 	18049.3
scalar MyScenario.node[70].veinsmobility 	totalTime 	27.2
scalar MyScenario.node[70].veinsmobility 	stopTime 	18076.6
scalar MyScenario.node[70].veinsmobility 	minSpeed 	33.140311154102
scalar MyScenario.node[70].veinsmobility 	maxSpeed 	33.274492515569
scalar MyScenario.node[70].veinsmobility 	totalDistance 	903.23429764054
scalar MyScenario.node[70].veinsmobility 	totalCO2Emission 	166.93295395821
scalar MyScenario.node[72].appl 	generatedWSMs 	0
scalar MyScenario.node[72].appl 	receivedWSMs 	0
scalar MyScenario.node[72].appl 	generatedBSMs 	27
scalar MyScenario.node[72].appl 	receivedBSMs 	200
scalar MyScenario.node[72].appl 	generatedWSAs 	0
scalar MyScenario.node[72].appl 	receivedWSAs 	0
scalar MyScenario.node[72].nic.phy80211p 	busyTime 	0.00077323420074349
scalar MyScenario.node[72].nic.mac1609_4 	ReceivedUnicastPackets 	0
scalar MyScenario.node[72].nic.mac1609_4 	ReceivedBroadcasts 	200
scalar MyScenario.node[72].nic.mac1609_4 	SentPackets 	27
scalar MyScenario.node[72].nic.mac1609_4 	SNIRLostPackets 	0
scalar MyScenario.node[72].nic.mac1609_4 	RXTXLostPackets 	0
scalar MyScenario.node[72].nic.mac1609_4 	TotalLostPackets 	0
scalar MyScenario.node[72].nic.mac1609_4 	DroppedPacketsInMac 	0
scalar MyScenario.node[72].nic.mac1609_4 	TooLittleTime 	0
scalar MyScenario.node[72].nic.mac1609_4 	TimesIntoBackoff 	27
scalar MyScenario.node[72].nic.mac1609_4 	SlotsBackoff 	39
scalar MyScenario.node[72].nic.mac1609_4 	NumInternalContention 	0
scalar MyScenario.node[72].nic.mac1609_4 	totalBusyTime 	0.023635
scalar MyScenario.node[72].veinsmobility 	startTime 	18050.9
scalar MyScenario.node[72].veinsmobility 	totalTime 	26.8
scalar MyScenario.node[72].veinsmobility 	stopTime 	18077.8
scalar MyScenario.node[72].veinsmobility 	minSpeed 	33.390212922267
scalar MyScenario.node[72].veinsmobility 	maxSpeed 	33.636005564023
scalar MyScenario.node[72].veinsmobility 	totalDistance 	899.18631740524
scalar MyScenario.node[72].veinsmobility 	totalCO2Emission 	176.75042079547
scalar MyScenario.node[73].appl 	generatedWSMs 	0
scalar MyScenario.node[73].appl 	receivedWSMs 	0
scalar MyScenario.node[73].appl 	generatedBSMs 	26
scalar MyScenario.node[73].appl 	receivedBSMs 	182
scalar MyScenario.node[73].appl 	generatedWSAs 	0
scalar MyScenario.node[73].appl 	receivedWSAs 	0
scalar MyScenario.node[73].nic.phy80211p 	busyTime 	0.0007224427480916
scalar MyScenario.node[73].nic.mac1609_4 	ReceivedUnicastPackets 	0
scalar MyScenario.node[73].nic.mac1609_4 	ReceivedBroadcasts 	182
scalar MyScenario.node[73].nic.mac1609_4 	SentPackets 	26
scalar MyScenario.node[73].nic.mac1609_4 	SNIRLostPackets 	0
scalar MyScenario.node[73].nic.mac1609_4 	RXTXLostPackets 	0
scalar MyScenario.node[73].nic.mac1609_4 	TotalLostPackets 	0
scalar MyScenario.node[73].nic.mac1609_4 	DroppedPacketsInMac 	0
scalar MyScenario.node[73].nic.mac1609_4 	TooLittleTime 	0
scalar MyScenario.node[73].nic.mac1609_4 	TimesIntoBackoff 	26
scalar MyScenario.node[73].nic.mac1609_4 	SlotsBackoff 	51
scalar MyScenario.node[73].nic.mac1609_4 	NumInternalContention 	0
scalar MyScenario.node[73].nic.mac1609_4 	totalBusyTime 	0.021658
scalar MyScenario.node[73].veinsmobility 	startTime 	18052.9
scalar MyScenario.node[73].veinsmobility 	totalTime 	26.1
scalar MyScenario.node[73].veinsmobility 	stopTime 	18079.1
scalar MyScenario.node[73].veinsmobility 	minSpeed 	31.224020114574
scalar MyScenario.node[73].veinsmobility 	maxSpeed 	36.684915441076
scalar MyScenario.node[73].veinsmobility 	totalDistance 	900.74889089801
scalar MyScenario.node[73].veinsmobility 	totalCO2Emission 	151.1756587549
scalar MyScenario.node[74].appl 	generatedWSMs 	0
scalar MyScenario.node[74].appl 	receivedWSMs 	0
scalar MyScenario.node[74].appl 	generatedBSMs 	27
scalar MyScenario.node[74].appl 	receivedBSMs 	167
scalar MyScenario.node[74].appl 	generatedWSAs 	0
scalar MyScenario.node[74].appl 	receivedWSAs 	0
scalar MyScenario.node[74].nic.phy80211p 	busyTime 	0.00062927536231884
scalar MyScenario.node[74].nic.mac1609_4 	ReceivedUnicastPackets 	0
scalar MyScenario.node[74].nic.mac1609_4 	ReceivedBroadcasts 	167
scalar MyScenario.node[74].nic.mac1609_4 	SentPackets 	27
scalar MyScenario.node[74].nic.mac1609_4 	SNIRLostPackets 	0
scalar MyScenario.node[74].nic.mac1609_4 	RXTXLostPackets 	0
scalar MyScenario.node[74].nic.mac1609_4 	TotalLostPackets 	0
scalar MyScenario.node[74].nic.mac1609_4 	DroppedPacketsInMac 	0
scalar MyScenario.node[74].nic.mac1609_4 	TooLittleTime 	0
scalar MyScenario.node[74].nic.mac1609_4 	TimesIntoBackoff 	27
scalar MyScenario.node[74].nic.mac1609_4 	SlotsBackoff 	31
scalar MyScenario.node[74].nic.mac1609_4 	NumInternalContention 	0
scalar MyScenario.node[74].nic.mac1609_4 	totalBusyTime 	0.020203
scalar MyScenario.node[74].veinsmobility 	startTime 	18053.2
scalar MyScenario.node[74].veinsmobility 	totalTime 	27.5
scalar MyScenario.node[74].veinsmobility 	stopTime 	18080.8
scalar MyScenario.node[74].veinsmobility 	minSpeed 	32.677364029933
scalar MyScenario.node[74].veinsmobility 	maxSpeed 	32.826470791921
scalar MyScenario.node[74].veinsmobility 	totalDistance 	899.605992104
scalar MyScenario.node[74].veinsmobility 	totalCO2Emission 	167.48618910884
scalar MyScenario.node[82].appl 	generatedWSMs 	0
scalar MyScenario.node[82].appl 	receivedWSMs 	0
scalar MyScenario.node[82].appl 	generatedBSMs 	22
scalar MyScenario.node[82].appl 	receivedBSMs 	146
scalar MyScenario.node[82].appl 	generatedWSAs 	0
scalar MyScenario.node[82].appl 	receivedWSAs 	0
scalar MyScenario.node[82].nic.phy80211p 	busyTime 	0.00068705882352941
scalar MyScenario.node[82].nic.mac1609_4 	ReceivedUnicastPackets 	0
scalar MyScenario.node[82].nic.mac1609_4 	ReceivedBroadcasts 	146
scalar MyScenario.node[82].nic.mac1609_4 	SentPackets 	22
scalar MyScenario.node[82].nic.mac1609_4 	SNIRLostPackets 	0
scalar MyScenario.node[82].nic.mac1609_4 	RXTXLostPackets 	0
scalar MyScenario.node[82].nic.mac1609_4 	TotalLostPackets 	0
scalar MyScenario.node[82].nic.mac1609_4 	DroppedPacketsInMac 	0
scalar MyScenario.node[82].nic.mac1609_4 	TooLittleTime 	0
scalar MyScenario.node[82].nic.mac1609_4 	TimesIntoBackoff 	22
scalar MyScenario.node[82].nic.mac1609_4 	SlotsBackoff 	38
scalar MyScenario.node[82].nic.mac1609_4 	NumInternalContention 	0
scalar MyScenario.node[82].nic.mac1609_4 	totalBusyTime 	0.017494
scalar MyScenario.node[82].veinsmobility 	startTime 	18062
scalar MyScenario.node[82].veinsmobility 	totalTime 	22
scalar MyScenario.node[82].veinsmobility 	stopTime 	18084.1
scalar MyScenario.node[82].veinsmobility 	minSpeed 	40.871113181292
scalar MyScenario.node[82].veinsmobility 	maxSpeed 	41.019015813355
scalar MyScenario.node[82].veinsmobility 	totalDistance 	901.76888846343
scalar MyScenario.node[82].veinsmobility 	totalCO2Emission 	206.50653857344
scalar MyScenario.node[78].appl 	generatedWSMs 	0
scalar MyScenario.node[78].appl 	receivedWSMs 	0
scalar MyScenario.node[78].appl 	generatedBSMs 	26
scalar MyScenario.node[78].appl 	receivedBSMs 	174
scalar MyScenario.node[78].appl 	generatedWSAs 	0
scalar MyScenario.node[78].appl 	receivedWSAs 	0
scalar MyScenario.node[78].nic.phy80211p 	busyTime 	0.00069333333333333
scalar MyScenario.node[78].nic.mac1609_4 	ReceivedUnicastPackets 	0
scalar MyScenario.node[78].nic.mac1609_4 	ReceivedBroadcasts 	174
scalar MyScenario.node[78].nic.mac1609_4 	SentPackets 	26
scalar MyScenario.node[78].nic.mac1609_4 	SNIRLostPackets 	0
scalar MyScenario.node[78].nic.mac1609_4 	RXTXLostPackets 	0
scalar MyScenario.node[78].nic.mac1609_4 	TotalLostPackets 	0
scalar MyScenario.node[78].nic.mac1609_4 	DroppedPacketsInMac 	0
scalar MyScenario.node[78].nic.mac1609_4 	TooLittleTime 	0
scalar MyScenario.node[78].nic.mac1609_4 	TimesIntoBackoff 	26
scalar MyScenario.node[78].nic.mac1609_4 	SlotsBackoff 	37
scalar MyScenario.node[78].nic.mac1609_4 	NumInternalContention 	0
scalar MyScenario.node[78].nic.mac1609_4 	totalBusyTime 	0.020826
scalar MyScenario.node[78].veinsmobility 	startTime 	18058.1
scalar MyScenario.node[78].veinsmobility 	totalTime 	26
scalar MyScenario.node[78].veinsmobility 	stopTime 	18084.2
scalar MyScenario.node[78].veinsmobility 	minSpeed 	34.580359909307
scalar MyScenario.node[78].veinsmobility 	maxSpeed 	34.719274862679
scalar MyScenario.node[78].veinsmobility 	totalDistance 	899.85465229533
scalar MyScenario.node[78].veinsmobility 	totalCO2Emission 	172.29568764111
[...]
scalar MyScenario.node[98].nic.mac1609_4 	SentPackets 	6
scalar MyScenario.node[98].nic.mac1609_4 	SNIRLostPackets 	0
scalar MyScenario.node[98].nic.mac1609_4 	RXTXLostPackets 	0
scalar MyScenario.node[98].nic.mac1609_4 	TotalLostPackets 	0
scalar MyScenario.node[98].nic.mac1609_4 	DroppedPacketsInMac 	0
scalar MyScenario.node[98].nic.mac1609_4 	TooLittleTime 	0
scalar MyScenario.node[98].nic.mac1609_4 	TimesIntoBackoff 	6
scalar MyScenario.node[98].nic.mac1609_4 	SlotsBackoff 	8
scalar MyScenario.node[98].nic.mac1609_4 	NumInternalContention 	0
scalar MyScenario.node[98].nic.mac1609_4 	totalBusyTime 	0.002294
scalar MyScenario.node[98].veinsmobility 	startTime 	18093.8
scalar MyScenario.node[98].veinsmobility 	totalTime 	6.2
scalar MyScenario.node[98].veinsmobility 	stopTime 	18100
scalar MyScenario.node[98].veinsmobility 	minSpeed 	16.650904154348
scalar MyScenario.node[98].veinsmobility 	maxSpeed 	16.783092614057
scalar MyScenario.node[98].veinsmobility 	totalDistance 	104.13561514956
scalar MyScenario.node[98].veinsmobility 	totalCO2Emission 	16.270848841812
scalar MyScenario.node[88].appl 	generatedWSMs 	0
scalar MyScenario.node[88].appl 	receivedWSMs 	0
scalar MyScenario.node[88].appl 	generatedBSMs 	22
scalar MyScenario.node[88].appl 	receivedBSMs 	144
scalar MyScenario.node[88].appl 	generatedWSAs 	0
scalar MyScenario.node[88].appl 	receivedWSAs 	0
scalar MyScenario.node[88].nic.phy80211p 	busyTime 	0.0007030985915493
scalar MyScenario.node[88].nic.mac1609_4 	ReceivedUnicastPackets 	0
scalar MyScenario.node[88].nic.mac1609_4 	ReceivedBroadcasts 	144
scalar MyScenario.node[88].nic.mac1609_4 	SentPackets 	22
scalar MyScenario.node[88].nic.mac1609_4 	SNIRLostPackets 	0
scalar MyScenario.node[88].nic.mac1609_4 	RXTXLostPackets 	0
scalar MyScenario.node[88].nic.mac1609_4 	TotalLostPackets 	0
scalar MyScenario.node[88].nic.mac1609_4 	DroppedPacketsInMac 	0
scalar MyScenario.node[88].nic.mac1609_4 	TooLittleTime 	0
scalar MyScenario.node[88].nic.mac1609_4 	TimesIntoBackoff 	22
scalar MyScenario.node[88].nic.mac1609_4 	SlotsBackoff 	24
scalar MyScenario.node[88].nic.mac1609_4 	NumInternalContention 	0
scalar MyScenario.node[88].nic.mac1609_4 	totalBusyTime 	0.017286
scalar MyScenario.node[88].veinsmobility 	startTime 	18078.7
scalar MyScenario.node[88].veinsmobility 	totalTime 	21.3
scalar MyScenario.node[88].veinsmobility 	stopTime 	18100
scalar MyScenario.node[88].veinsmobility 	minSpeed 	28.972417605702
scalar MyScenario.node[88].veinsmobility 	maxSpeed 	32.413658102389
scalar MyScenario.node[88].veinsmobility 	totalDistance 	686.89481932807
scalar MyScenario.node[88].veinsmobility 	totalCO2Emission 	149.99623576862
scalar MyScenario.node[27].appl 	generatedWSMs 	0
scalar MyScenario.node[27].appl 	receivedWSMs 	0
scalar MyScenario.node[27].appl 	generatedBSMs 	100
scalar MyScenario.node[27].appl 	receivedBSMs 	116
scalar MyScenario.node[27].appl 	generatedWSAs 	0
scalar MyScenario.node[27].appl 	receivedWSAs 	0
scalar MyScenario.node[27].nic.phy80211p 	busyTime 	0.00012064
scalar MyScenario.node[27].nic.mac1609_4 	ReceivedUnicastPackets 	0
scalar MyScenario.node[27].nic.mac1609_4 	ReceivedBroadcasts 	116
scalar MyScenario.node[27].nic.mac1609_4 	SentPackets 	100
scalar MyScenario.node[27].nic.mac1609_4 	SNIRLostPackets 	0
scalar MyScenario.node[27].nic.mac1609_4 	RXTXLostPackets 	0
scalar MyScenario.node[27].nic.mac1609_4 	TotalLostPackets 	0
scalar MyScenario.node[27].nic.mac1609_4 	DroppedPacketsInMac 	0
scalar MyScenario.node[27].nic.mac1609_4 	TooLittleTime 	0
scalar MyScenario.node[27].nic.mac1609_4 	TimesIntoBackoff 	100
scalar MyScenario.node[27].nic.mac1609_4 	SlotsBackoff 	154
scalar MyScenario.node[27].nic.mac1609_4 	NumInternalContention 	0
scalar MyScenario.node[27].nic.mac1609_4 	totalBusyTime 	0.022564
scalar MyScenario.node[27].veinsmobility 	startTime 	18000
scalar MyScenario.node[27].veinsmobility 	totalTime 	100
scalar MyScenario.node[27].veinsmobility 	stopTime 	18100
scalar MyScenario.node[27].veinsmobility 	minSpeed 	4.5385614116755e-14
scalar MyScenario.node[27].veinsmobility 	maxSpeed 	20.016850348027
scalar MyScenario.node[27].veinsmobility 	totalDistance 	902.81055417448
scalar MyScenario.node[27].veinsmobility 	totalCO2Emission 	335.64865593473
scalar MyScenario.node[93].appl 	generatedWSMs 	0
scalar MyScenario.node[93].appl 	receivedWSMs 	0
scalar MyScenario.node[93].appl 	generatedBSMs 	11
scalar MyScenario.node[93].appl 	receivedBSMs 	26
scalar MyScenario.node[93].appl 	generatedWSAs 	0
scalar MyScenario.node[93].appl 	receivedWSAs 	0
scalar MyScenario.node[93].nic.phy80211p 	busyTime 	0.00026252427184466
scalar MyScenario.node[93].nic.mac1609_4 	ReceivedUnicastPackets 	0
scalar MyScenario.node[93].nic.mac1609_4 	ReceivedBroadcasts 	26
scalar MyScenario.node[93].nic.mac1609_4 	SentPackets 	11
scalar MyScenario.node[93].nic.mac1609_4 	SNIRLostPackets 	0
scalar MyScenario.node[93].nic.mac1609_4 	RXTXLostPackets 	0
scalar MyScenario.node[93].nic.mac1609_4 	TotalLostPackets 	0
scalar MyScenario.node[93].nic.mac1609_4 	DroppedPacketsInMac 	0
scalar MyScenario.node[93].nic.mac1609_4 	TooLittleTime 	0
scalar MyScenario.node[93].nic.mac1609_4 	TimesIntoBackoff 	11
scalar MyScenario.node[93].nic.mac1609_4 	SlotsBackoff 	13
scalar MyScenario.node[93].nic.mac1609_4 	NumInternalContention 	0
scalar MyScenario.node[93].nic.mac1609_4 	totalBusyTime 	0.003859
scalar MyScenario.node[93].veinsmobility 	startTime 	18089.7
scalar MyScenario.node[93].veinsmobility 	totalTime 	10.3
scalar MyScenario.node[93].veinsmobility 	stopTime 	18100
scalar MyScenario.node[93].veinsmobility 	minSpeed 	14.401213660607
scalar MyScenario.node[93].veinsmobility 	maxSpeed 	14.86173814637
scalar MyScenario.node[93].veinsmobility 	totalDistance 	152.20877434526
scalar MyScenario.node[93].veinsmobility 	totalCO2Emission 	27.74719425648
scalar MyScenario.node[29].appl 	generatedWSMs 	0
scalar MyScenario.node[29].appl 	receivedWSMs 	0
scalar MyScenario.node[29].appl 	generatedBSMs 	100
scalar MyScenario.node[29].appl 	receivedBSMs 	242
scalar MyScenario.node[29].appl 	generatedWSAs 	0
scalar MyScenario.node[29].appl 	receivedWSAs 	0
scalar MyScenario.node[29].nic.phy80211p 	busyTime 	0.00025168
scalar MyScenario.node[29].nic.mac1609_4 	ReceivedUnicastPackets 	0
scalar MyScenario.node[29].nic.mac1609_4 	ReceivedBroadcasts 	242
scalar MyScenario.node[29].nic.mac1609_4 	SentPackets 	100
scalar MyScenario.node[29].nic.mac1609_4 	SNIRLostPackets 	0
scalar MyScenario.node[29].nic.mac1609_4 	RXTXLostPackets 	0
scalar MyScenario.node[29].nic.mac1609_4 	TotalLostPackets 	0
scalar MyScenario.node[29].nic.mac1609_4 	DroppedPacketsInMac 	0
scalar MyScenario.node[29].nic.mac1609_4 	TooLittleTime 	0
scalar MyScenario.node[29].nic.mac1609_4 	TimesIntoBackoff 	100
scalar MyScenario.node[29].nic.mac1609_4 	SlotsBackoff 	149
scalar MyScenario.node[29].nic.mac1609_4 	NumInternalContention 	0
scalar MyScenario.node[29].nic.mac1609_4 	totalBusyTime 	0.035668
scalar MyScenario.node[29].veinsmobility 	startTime 	18000
scalar MyScenario.node[29].veinsmobility 	totalTime 	100
scalar MyScenario.node[29].veinsmobility 	stopTime 	18100
scalar MyScenario.node[29].veinsmobility 	minSpeed 	0
scalar MyScenario.node[29].veinsmobility 	maxSpeed 	13.609659967059
scalar MyScenario.node[29].veinsmobility 	totalDistance 	808.08841705764
scalar MyScenario.node[29].veinsmobility 	totalCO2Emission 	215.91859143147
scalar MyScenario.node[31].appl 	generatedWSMs 	0
scalar MyScenario.node[31].appl 	receivedWSMs 	0
scalar MyScenario.node[31].appl 	generatedBSMs 	100
scalar MyScenario.node[31].appl 	receivedBSMs 	533
scalar MyScenario.node[31].appl 	generatedWSAs 	0
scalar MyScenario.node[31].appl 	receivedWSAs 	0
scalar MyScenario.node[31].nic.phy80211p 	busyTime 	0.00055432
scalar MyScenario.node[31].nic.mac1609_4 	ReceivedUnicastPackets 	0
scalar MyScenario.node[31].nic.mac1609_4 	ReceivedBroadcasts 	533
scalar MyScenario.node[31].nic.mac1609_4 	SentPackets 	100
scalar MyScenario.node[31].nic.mac1609_4 	SNIRLostPackets 	0
scalar MyScenario.node[31].nic.mac1609_4 	RXTXLostPackets 	0
scalar MyScenario.node[31].nic.mac1609_4 	TotalLostPackets 	0
scalar MyScenario.node[31].nic.mac1609_4 	DroppedPacketsInMac 	0
scalar MyScenario.node[31].nic.mac1609_4 	TooLittleTime 	0
scalar MyScenario.node[31].nic.mac1609_4 	TimesIntoBackoff 	100
scalar MyScenario.node[31].nic.mac1609_4 	SlotsBackoff 	144
scalar MyScenario.node[31].nic.mac1609_4 	NumInternalContention 	0
scalar MyScenario.node[31].nic.mac1609_4 	totalBusyTime 	0.065932
scalar MyScenario.node[31].veinsmobility 	startTime 	18000
scalar MyScenario.node[31].veinsmobility 	totalTime 	100
scalar MyScenario.node[31].veinsmobility 	stopTime 	18100
scalar MyScenario.node[31].veinsmobility 	minSpeed 	0
scalar MyScenario.node[31].veinsmobility 	maxSpeed 	16.221463884608
scalar MyScenario.node[31].veinsmobility 	totalDistance 	731.41991395956
scalar MyScenario.node[31].veinsmobility 	totalCO2Emission 	229.01104647798
scalar MyScenario.node[32].appl 	generatedWSMs 	0
scalar MyScenario.node[32].appl 	receivedWSMs 	0
scalar MyScenario.node[32].appl 	generatedBSMs 	100
scalar MyScenario.node[32].appl 	receivedBSMs 	300
scalar MyScenario.node[32].appl 	generatedWSAs 	0
scalar MyScenario.node[32].appl 	receivedWSAs 	0
scalar MyScenario.node[32].nic.phy80211p 	busyTime 	0.000312
scalar MyScenario.node[32].nic.mac1609_4 	ReceivedUnicastPackets 	0
scalar MyScenario.node[32].nic.mac1609_4 	ReceivedBroadcasts 	300
scalar MyScenario.node[32].nic.mac1609_4 	SentPackets 	100
scalar MyScenario.node[32].nic.mac1609_4 	SNIRLostPackets 	0
scalar MyScenario.node[32].nic.mac1609_4 	RXTXLostPackets 	0
scalar MyScenario.node[32].nic.mac1609_4 	TotalLostPackets 	0
scalar MyScenario.node[32].nic.mac1609_4 	DroppedPacketsInMac 	0
scalar MyScenario.node[32].nic.mac1609_4 	TooLittleTime 	0
scalar MyScenario.node[32].nic.mac1609_4 	TimesIntoBackoff 	100
scalar MyScenario.node[32].nic.mac1609_4 	SlotsBackoff 	149
scalar MyScenario.node[32].nic.mac1609_4 	NumInternalContention 	0
scalar MyScenario.node[32].nic.mac1609_4 	totalBusyTime 	0.0417
scalar MyScenario.node[32].veinsmobility 	startTime 	18000
scalar MyScenario.node[32].veinsmobility 	totalTime 	100
scalar MyScenario.node[32].veinsmobility 	stopTime 	18100
scalar MyScenario.node[32].veinsmobility 	minSpeed 	0
scalar MyScenario.node[32].veinsmobility 	maxSpeed 	16.572632650914
scalar MyScenario.node[32].veinsmobility 	totalDistance 	1120.1855646585
scalar MyScenario.node[32].veinsmobility 	totalCO2Emission 	249.83308859981
scalar MyScenario.node[46].appl 	generatedWSMs 	0
scalar MyScenario.node[46].appl 	receivedWSMs 	0
scalar MyScenario.node[46].appl 	generatedBSMs 	95
scalar MyScenario.node[46].appl 	receivedBSMs 	156
scalar MyScenario.node[46].appl 	generatedWSAs 	0
scalar MyScenario.node[46].appl 	receivedWSAs 	0
scalar MyScenario.node[46].nic.phy80211p 	busyTime 	0.00017095890410959
scalar MyScenario.node[46].nic.mac1609_4 	ReceivedUnicastPackets 	0
scalar MyScenario.node[46].nic.mac1609_4 	ReceivedBroadcasts 	156
scalar MyScenario.node[46].nic.mac1609_4 	SentPackets 	95
scalar MyScenario.node[46].nic.mac1609_4 	SNIRLostPackets 	0
scalar MyScenario.node[46].nic.mac1609_4 	RXTXLostPackets 	0
scalar MyScenario.node[46].nic.mac1609_4 	TotalLostPackets 	0
scalar MyScenario.node[46].nic.mac1609_4 	DroppedPacketsInMac 	0
scalar MyScenario.node[46].nic.mac1609_4 	TooLittleTime 	0
scalar MyScenario.node[46].nic.mac1609_4 	TimesIntoBackoff 	95
scalar MyScenario.node[46].nic.mac1609_4 	SlotsBackoff 	154
scalar MyScenario.node[46].nic.mac1609_4 	NumInternalContention 	0
scalar MyScenario.node[46].nic.mac1609_4 	totalBusyTime 	0.026199
scalar MyScenario.node[46].veinsmobility 	startTime 	18005.1
scalar MyScenario.node[46].veinsmobility 	totalTime 	94.9
scalar MyScenario.node[46].veinsmobility 	stopTime 	18100
scalar MyScenario.node[46].veinsmobility 	minSpeed 	0.29730544044636
scalar MyScenario.node[46].veinsmobility 	maxSpeed 	17.378790445178
scalar MyScenario.node[46].veinsmobility 	totalDistance 	1217.9869650222
scalar MyScenario.node[46].veinsmobility 	totalCO2Emission 	345.31316251175
scalar MyScenario.node[87].appl 	generatedWSMs 	0
scalar MyScenario.node[87].appl 	receivedWSMs 	0
scalar MyScenario.node[87].appl 	generatedBSMs 	21
scalar MyScenario.node[87].appl 	receivedBSMs 	125
scalar MyScenario.node[87].appl 	generatedWSAs 	0
scalar MyScenario.node[87].appl 	receivedWSAs 	0
scalar MyScenario.node[87].nic.phy80211p 	busyTime 	0.0006046511627907
scalar MyScenario.node[87].nic.mac1609_4 	ReceivedUnicastPackets 	0
scalar MyScenario.node[87].nic.mac1609_4 	ReceivedBroadcasts 	125
scalar MyScenario.node[87].nic.mac1609_4 	SentPackets 	21
scalar MyScenario.node[87].nic.mac1609_4 	SNIRLostPackets 	0
scalar MyScenario.node[87].nic.mac1609_4 	RXTXLostPackets 	0
scalar MyScenario.node[87].nic.mac1609_4 	TotalLostPackets 	0
scalar MyScenario.node[87].nic.mac1609_4 	DroppedPacketsInMac 	0
scalar MyScenario.node[87].nic.mac1609_4 	TooLittleTime 	0
scalar MyScenario.node[87].nic.mac1609_4 	TimesIntoBackoff 	21
scalar MyScenario.node[87].nic.mac1609_4 	SlotsBackoff 	25
scalar MyScenario.node[87].nic.mac1609_4 	NumInternalContention 	0
scalar MyScenario.node[87].nic.mac1609_4 	totalBusyTime 	0.015205
scalar MyScenario.node[87].veinsmobility 	startTime 	18078.5
scalar MyScenario.node[87].veinsmobility 	totalTime 	21.5
scalar MyScenario.node[87].veinsmobility 	stopTime 	18100
scalar MyScenario.node[87].veinsmobility 	minSpeed 	40.448729425503
scalar MyScenario.node[87].veinsmobility 	maxSpeed 	42.136369972252
scalar MyScenario.node[87].veinsmobility 	totalDistance 	896.31198483666
scalar MyScenario.node[87].veinsmobility 	totalCO2Emission 	205.7394428916
scalar MyScenario.node[33].appl 	generatedWSMs 	0
scalar MyScenario.node[33].appl 	receivedWSMs 	0
scalar MyScenario.node[33].appl 	generatedBSMs 	100
scalar MyScenario.node[33].appl 	receivedBSMs 	495
scalar MyScenario.node[33].appl 	generatedWSAs 	0
scalar MyScenario.node[33].appl 	receivedWSAs 	0
scalar MyScenario.node[33].nic.phy80211p 	busyTime 	0.0005148
scalar MyScenario.node[33].nic.mac1609_4 	ReceivedUnicastPackets 	0
scalar MyScenario.node[33].nic.mac1609_4 	ReceivedBroadcasts 	495
scalar MyScenario.node[33].nic.mac1609_4 	SentPackets 	100
scalar MyScenario.node[33].nic.mac1609_4 	SNIRLostPackets 	0
scalar MyScenario.node[33].nic.mac1609_4 	RXTXLostPackets 	0
scalar MyScenario.node[33].nic.mac1609_4 	TotalLostPackets 	0
scalar MyScenario.node[33].nic.mac1609_4 	DroppedPacketsInMac 	0
scalar MyScenario.node[33].nic.mac1609_4 	TooLittleTime 	0
scalar MyScenario.node[33].nic.mac1609_4 	TimesIntoBackoff 	100
scalar MyScenario.node[33].nic.mac1609_4 	SlotsBackoff 	123
scalar MyScenario.node[33].nic.mac1609_4 	NumInternalContention 	0
scalar MyScenario.node[33].nic.mac1609_4 	totalBusyTime 	0.06198
scalar MyScenario.node[33].veinsmobility 	startTime 	18000
scalar MyScenario.node[33].veinsmobility 	totalTime 	100
scalar MyScenario.node[33].veinsmobility 	stopTime 	18100
scalar MyScenario.node[33].veinsmobility 	minSpeed 	0
scalar MyScenario.node[33].veinsmobility 	maxSpeed 	17.329813926676
scalar MyScenario.node[33].veinsmobility 	totalDistance 	704.40289598755
scalar MyScenario.node[33].veinsmobility 	totalCO2Emission 	236.22633127408
scalar MyScenario.node[35].appl 	generatedWSMs 	0
scalar MyScenario.node[35].appl 	receivedWSMs 	0
scalar MyScenario.node[35].appl 	generatedBSMs 	100
scalar MyScenario.node[35].appl 	receivedBSMs 	563
scalar MyScenario.node[35].appl 	generatedWSAs 	0
scalar MyScenario.node[35].appl 	receivedWSAs 	0
scalar MyScenario.node[35].nic.phy80211p 	busyTime 	0.00058552
scalar MyScenario.node[35].nic.mac1609_4 	ReceivedUnicastPackets 	0
scalar MyScenario.node[35].nic.mac1609_4 	ReceivedBroadcasts 	563
scalar MyScenario.node[35].nic.mac1609_4 	SentPackets 	100
scalar MyScenario.node[35].nic.mac1609_4 	SNIRLostPackets 	0
scalar MyScenario.node[35].nic.mac1609_4 	RXTXLostPackets 	0
scalar MyScenario.node[35].nic.mac1609_4 	TotalLostPackets 	0
scalar MyScenario.node[35].nic.mac1609_4 	DroppedPacketsInMac 	0
scalar MyScenario.node[35].nic.mac1609_4 	TooLittleTime 	0
scalar MyScenario.node[35].nic.mac1609_4 	TimesIntoBackoff 	100
scalar MyScenario.node[35].nic.mac1609_4 	SlotsBackoff 	148
scalar MyScenario.node[35].nic.mac1609_4 	NumInternalContention 	0
scalar MyScenario.node[35].nic.mac1609_4 	totalBusyTime 	0.069052
scalar MyScenario.node[35].veinsmobility 	startTime 	18000
scalar MyScenario.node[35].veinsmobility 	totalTime 	100
scalar MyScenario.node[35].veinsmobility 	stopTime 	18100
scalar MyScenario.node[35].veinsmobility 	minSpeed 	0
scalar MyScenario.node[35].veinsmobility 	maxSpeed 	13.705607616255
scalar MyScenario.node[35].veinsmobility 	totalDistance 	681.76641646291
scalar MyScenario.node[35].veinsmobility 	totalCO2Emission 	196.49356767189
scalar MyScenario.node[36].appl 	generatedWSMs 	0
scalar MyScenario.node[36].appl 	receivedWSMs 	0
scalar MyScenario.node[36].appl 	generatedBSMs 	100
scalar MyScenario.node[36].appl 	receivedBSMs 	586
scalar MyScenario.node[36].appl 	generatedWSAs 	0
scalar MyScenario.node[36].appl 	receivedWSAs 	0
scalar MyScenario.node[36].nic.phy80211p 	busyTime 	0.00060944
scalar MyScenario.node[36].nic.mac1609_4 	ReceivedUnicastPackets 	0
scalar MyScenario.node[36].nic.mac1609_4 	ReceivedBroadcasts 	586
scalar MyScenario.node[36].nic.mac1609_4 	SentPackets 	100
scalar MyScenario.node[36].nic.mac1609_4 	SNIRLostPackets 	0
scalar MyScenario.node[36].nic.mac1609_4 	RXTXLostPackets 	0
scalar MyScenario.node[36].nic.mac1609_4 	TotalLostPackets 	0
scalar MyScenario.node[36].nic.mac1609_4 	DroppedPacketsInMac 	0
scalar MyScenario.node[36].nic.mac1609_4 	TooLittleTime 	0
scalar MyScenario.node[36].nic.mac1609_4 	TimesIntoBackoff 	100
scalar MyScenario.node[36].nic.mac1609_4 	SlotsBackoff 	150
scalar MyScenario.node[36].nic.mac1609_4 	NumInternalContention 	0
scalar MyScenario.node[36].nic.mac1609_4 	totalBusyTime 	0.071444
scalar MyScenario.node[36].veinsmobility 	startTime 	18000
scalar MyScenario.node[36].veinsmobility 	totalTime 	100
scalar MyScenario.node[36].veinsmobility 	stopTime 	18100
scalar MyScenario.node[36].veinsmobility 	minSpeed 	0
scalar MyScenario.node[36].veinsmobility 	maxSpeed 	16.814025960663
scalar MyScenario.node[36].veinsmobility 	totalDistance 	1061.8082841467
scalar MyScenario.node[36].veinsmobility 	totalCO2Emission 	227.07311323695
scalar MyScenario.node[38].appl 	generatedWSMs 	0
scalar MyScenario.node[38].appl 	receivedWSMs 	0
scalar MyScenario.node[38].appl 	generatedBSMs 	100
scalar MyScenario.node[38].appl 	receivedBSMs 	540
scalar MyScenario.node[38].appl 	generatedWSAs 	0
scalar MyScenario.node[38].appl 	receivedWSAs 	0
scalar MyScenario.node[38].nic.phy80211p 	busyTime 	0.0005616
scalar MyScenario.node[38].nic.mac1609_4 	ReceivedUnicastPackets 	0
scalar MyScenario.node[38].nic.mac1609_4 	ReceivedBroadcasts 	540
scalar MyScenario.node[38].nic.mac1609_4 	SentPackets 	100
scalar MyScenario.node[38].nic.mac1609_4 	SNIRLostPackets 	0
scalar MyScenario.node[38].nic.mac1609_4 	RXTXLostPackets 	0
scalar MyScenario.node[38].nic.mac1609_4 	TotalLostPackets 	0
scalar MyScenario.node[38].nic.mac1609_4 	DroppedPacketsInMac 	0
scalar MyScenario.node[38].nic.mac1609_4 	TooLittleTime 	0
scalar MyScenario.node[38].nic.mac1609_4 	TimesIntoBackoff 	100
scalar MyScenario.node[38].nic.mac1609_4 	SlotsBackoff 	158
scalar MyScenario.node[38].nic.mac1609_4 	NumInternalContention 	0
scalar MyScenario.node[38].nic.mac1609_4 	totalBusyTime 	0.06666
scalar MyScenario.node[38].veinsmobility 	startTime 	18000
scalar MyScenario.node[38].veinsmobility 	totalTime 	100
scalar MyScenario.node[38].veinsmobility 	stopTime 	18100
scalar MyScenario.node[38].veinsmobility 	minSpeed 	0
scalar MyScenario.node[38].veinsmobility 	maxSpeed 	16.234636383816
scalar MyScenario.node[38].veinsmobility 	totalDistance 	716.73429707971
scalar MyScenario.node[38].veinsmobility 	totalCO2Emission 	221.83210730405
