version 2
run AttackerType16-5-20180205-19:41:31-79983
attr configname AttackerType16
attr datetime 20180205-19:41:31
attr experiment AttackerType16
attr inifile omnetpp_5.ini
attr iterationvars "$start=3, $0=0.2"
attr iterationvarsf start=3,0.2-
attr measurement "$start=3, $0=0.2"
attr network MyScenario
attr processid 79983
attr repetition 0
attr replication #0
attr resultdir results
attr runnumber 5
attr seedset 0
attr start 3
param **.**.**.debug false
param **.**.nic.**.debug false
param **.coreDebug false
param **.debug false
param *.**.nic.mac1609_4.bitrate 6Mbps
param *.**.nic.mac1609_4.txPower 20mW
param *.**.nic.mac1609_4.useServiceChannel false
param *.**.nic.phy80211p.analogueModels "xmldoc(\"config.xml\")"
param *.**.nic.phy80211p.antenna "xmldoc(\"antenna.xml\", \"/root/Antenna[@id='monopole']\")"
param *.**.nic.phy80211p.decider "xmldoc(\"config.xml\")"
param *.**.nic.phy80211p.sensitivity -89dBm
param *.**.nic.phy80211p.thermalNoise -110dBm
param *.**.nic.phy80211p.usePropagationDelay true
param *.**.nic.phy80211p.useThermalNoise true
param *.**.veinsmobility.x 0
param *.**.veinsmobility.y 0
param *.**.veinsmobility.z 1.895
param *.**.veinsmobilityType.debug false
param *.annotations.draw false
param *.connectionManager.drawMaxIntfDist false
param *.connectionManager.maxInterfDist 2600m
param *.connectionManager.sendDirect true
param *.manager.autoShutdown true
param *.manager.configFile "\"dua.static.sumocfg\""
param *.manager.firstStepAt 3h
param *.manager.host "\"localhost\""
param *.manager.launchConfig "xmldoc(\"luxembourg.launchd.xml\")"
param *.manager.roiRects "\"2300,5400-6300,6300\""
param *.manager.seed 0
param *.manager.updateInterval 0.1s
param *.node[*].appl.attackerProbability 0.2
param *.node[*].appl.attackerType 16
param *.node[*].appl.beaconInterval 1s
param *.node[*].appl.dataOnSch false
param *.node[*].appl.headerLength "80 bit"
param *.node[*].appl.sendBeacons true
param *.node[*].appl.traceGroundTruthJSONFile "\"GroundTruthJSONlog\""
param *.node[*].appl.traceJSONFile "\"JSONlog-\""
param *.node[*].applType "\"AttackerApp\""
param *.obstacles.debug false
param *.obstacles.obstacles "xmldoc(\"config.xml\", \"//AnalogueModel[@type='SimpleObstacleShadowing']/obstacles\")"
param *.playgroundSizeX 13640m
param *.playgroundSizeY 11500m
param *.playgroundSizeZ 50m

scalar _runattrs_ 	start 	3
scalar MyScenario.node[5].appl 	generatedWSMs 	0
scalar MyScenario.node[5].appl 	receivedWSMs 	0
scalar MyScenario.node[5].appl 	generatedBSMs 	1
scalar MyScenario.node[5].appl 	receivedBSMs 	6
scalar MyScenario.node[5].appl 	generatedWSAs 	0
scalar MyScenario.node[5].appl 	receivedWSAs 	0
scalar MyScenario.node[5].nic.phy80211p 	busyTime 	0.00032842105263158
scalar MyScenario.node[5].nic.mac1609_4 	ReceivedUnicastPackets 	0
scalar MyScenario.node[5].nic.mac1609_4 	ReceivedBroadcasts 	6
scalar MyScenario.node[5].nic.mac1609_4 	SentPackets 	1
scalar MyScenario.node[5].nic.mac1609_4 	SNIRLostPackets 	0
scalar MyScenario.node[5].nic.mac1609_4 	RXTXLostPackets 	0
scalar MyScenario.node[5].nic.mac1609_4 	TotalLostPackets 	0
scalar MyScenario.node[5].nic.mac1609_4 	DroppedPacketsInMac 	0
scalar MyScenario.node[5].nic.mac1609_4 	TooLittleTime 	0
scalar MyScenario.node[5].nic.mac1609_4 	TimesIntoBackoff 	1
scalar MyScenario.node[5].nic.mac1609_4 	SlotsBackoff 	0
scalar MyScenario.node[5].nic.mac1609_4 	NumInternalContention 	0
scalar MyScenario.node[5].nic.mac1609_4 	totalBusyTime 	0.000729
scalar MyScenario.node[5].veinsmobility 	startTime 	10800
scalar MyScenario.node[5].veinsmobility 	totalTime 	1.8
scalar MyScenario.node[5].veinsmobility 	stopTime 	10801.9
scalar MyScenario.node[5].veinsmobility 	minSpeed 	38.94038458721
scalar MyScenario.node[5].veinsmobility 	maxSpeed 	39.047027050839
scalar MyScenario.node[5].veinsmobility 	totalDistance 	70.295695146733
scalar MyScenario.node[5].veinsmobility 	totalCO2Emission 	14.070138768107
scalar MyScenario.node[2].appl 	generatedWSMs 	0
scalar MyScenario.node[2].appl 	receivedWSMs 	0
scalar MyScenario.node[2].appl 	generatedBSMs 	6
scalar MyScenario.node[2].appl 	receivedBSMs 	29
scalar MyScenario.node[2].appl 	generatedWSAs 	0
scalar MyScenario.node[2].appl 	receivedWSAs 	0
scalar MyScenario.node[2].nic.phy80211p 	busyTime 	0.00044352941176471
scalar MyScenario.node[2].nic.mac1609_4 	ReceivedUnicastPackets 	0
scalar MyScenario.node[2].nic.mac1609_4 	ReceivedBroadcasts 	29
scalar MyScenario.node[2].nic.mac1609_4 	SentPackets 	6
scalar MyScenario.node[2].nic.mac1609_4 	SNIRLostPackets 	0
scalar MyScenario.node[2].nic.mac1609_4 	RXTXLostPackets 	0
scalar MyScenario.node[2].nic.mac1609_4 	TotalLostPackets 	0
scalar MyScenario.node[2].nic.mac1609_4 	DroppedPacketsInMac 	0
scalar MyScenario.node[2].nic.mac1609_4 	TooLittleTime 	0
scalar MyScenario.node[2].nic.mac1609_4 	TimesIntoBackoff 	6
scalar MyScenario.node[2].nic.mac1609_4 	SlotsBackoff 	8
scalar MyScenario.node[2].nic.mac1609_4 	NumInternalContention 	0
scalar MyScenario.node[2].nic.mac1609_4 	totalBusyTime 	0.003646
scalar MyScenario.node[2].veinsmobility 	startTime 	10800
scalar MyScenario.node[2].veinsmobility 	totalTime 	6.7
scalar MyScenario.node[2].veinsmobility 	stopTime 	10806.8
scalar MyScenario.node[2].veinsmobility 	minSpeed 	40.170401362043
scalar MyScenario.node[2].veinsmobility 	maxSpeed 	40.308214607195
scalar MyScenario.node[2].veinsmobility 	totalDistance 	269.90011501907
scalar MyScenario.node[2].veinsmobility 	totalCO2Emission 	59.882660901992
scalar MyScenario.node[1].appl 	generatedWSMs 	0
scalar MyScenario.node[1].appl 	receivedWSMs 	0
scalar MyScenario.node[1].appl 	generatedBSMs 	14
scalar MyScenario.node[1].appl 	receivedBSMs 	45
scalar MyScenario.node[1].appl 	generatedWSAs 	0
scalar MyScenario.node[1].appl 	receivedWSAs 	0
scalar MyScenario.node[1].nic.phy80211p 	busyTime 	0.00032957746478873
scalar MyScenario.node[1].nic.mac1609_4 	ReceivedUnicastPackets 	0
scalar MyScenario.node[1].nic.mac1609_4 	ReceivedBroadcasts 	45
scalar MyScenario.node[1].nic.mac1609_4 	SentPackets 	14
scalar MyScenario.node[1].nic.mac1609_4 	SNIRLostPackets 	0
scalar MyScenario.node[1].nic.mac1609_4 	RXTXLostPackets 	0
scalar MyScenario.node[1].nic.mac1609_4 	TotalLostPackets 	0
scalar MyScenario.node[1].nic.mac1609_4 	DroppedPacketsInMac 	0
scalar MyScenario.node[1].nic.mac1609_4 	TooLittleTime 	0
scalar MyScenario.node[1].nic.mac1609_4 	TimesIntoBackoff 	14
scalar MyScenario.node[1].nic.mac1609_4 	SlotsBackoff 	24
scalar MyScenario.node[1].nic.mac1609_4 	NumInternalContention 	0
scalar MyScenario.node[1].nic.mac1609_4 	totalBusyTime 	0.00615
scalar MyScenario.node[1].veinsmobility 	startTime 	10800
scalar MyScenario.node[1].veinsmobility 	totalTime 	14.1
scalar MyScenario.node[1].veinsmobility 	stopTime 	10814.2
scalar MyScenario.node[1].veinsmobility 	minSpeed 	38.780161488789
scalar MyScenario.node[1].veinsmobility 	maxSpeed 	38.928935725032
scalar MyScenario.node[1].veinsmobility 	totalDistance 	547.87180789797
scalar MyScenario.node[1].veinsmobility 	totalCO2Emission 	117.39138235068
scalar MyScenario.node[4].appl 	generatedWSMs 	0
scalar MyScenario.node[4].appl 	receivedWSMs 	0
scalar MyScenario.node[4].appl 	generatedBSMs 	18
scalar MyScenario.node[4].appl 	receivedBSMs 	53
scalar MyScenario.node[4].appl 	generatedWSAs 	0
scalar MyScenario.node[4].appl 	receivedWSAs 	0
scalar MyScenario.node[4].nic.phy80211p 	busyTime 	0.00031141242937853
scalar MyScenario.node[4].nic.mac1609_4 	ReceivedUnicastPackets 	0
scalar MyScenario.node[4].nic.mac1609_4 	ReceivedBroadcasts 	53
scalar MyScenario.node[4].nic.mac1609_4 	SentPackets 	18
scalar MyScenario.node[4].nic.mac1609_4 	SNIRLostPackets 	0
scalar MyScenario.node[4].nic.mac1609_4 	RXTXLostPackets 	0
scalar MyScenario.node[4].nic.mac1609_4 	TotalLostPackets 	0
scalar MyScenario.node[4].nic.mac1609_4 	DroppedPacketsInMac 	0
scalar MyScenario.node[4].nic.mac1609_4 	TooLittleTime 	0
scalar MyScenario.node[4].nic.mac1609_4 	TimesIntoBackoff 	18
scalar MyScenario.node[4].nic.mac1609_4 	SlotsBackoff 	36
scalar MyScenario.node[4].nic.mac1609_4 	NumInternalContention 	0
scalar MyScenario.node[4].nic.mac1609_4 	totalBusyTime 	0.007402
scalar MyScenario.node[4].veinsmobility 	startTime 	10800
scalar MyScenario.node[4].veinsmobility 	totalTime 	17.6
scalar MyScenario.node[4].veinsmobility 	stopTime 	10817.7
scalar MyScenario.node[4].veinsmobility 	minSpeed 	29.88592609019
scalar MyScenario.node[4].veinsmobility 	maxSpeed 	29.998091320185
scalar MyScenario.node[4].veinsmobility 	totalDistance 	526.90333614704
scalar MyScenario.node[4].veinsmobility 	totalCO2Emission 	89.867928559373
scalar MyScenario.node[3].appl 	generatedWSMs 	0
scalar MyScenario.node[3].appl 	receivedWSMs 	0
scalar MyScenario.node[3].appl 	generatedBSMs 	19
scalar MyScenario.node[3].appl 	receivedBSMs 	59
scalar MyScenario.node[3].appl 	generatedWSAs 	0
scalar MyScenario.node[3].appl 	receivedWSAs 	0
scalar MyScenario.node[3].nic.phy80211p 	busyTime 	0.00032125654450262
scalar MyScenario.node[3].nic.mac1609_4 	ReceivedUnicastPackets 	0
scalar MyScenario.node[3].nic.mac1609_4 	ReceivedBroadcasts 	59
scalar MyScenario.node[3].nic.mac1609_4 	SentPackets 	19
scalar MyScenario.node[3].nic.mac1609_4 	SNIRLostPackets 	0
scalar MyScenario.node[3].nic.mac1609_4 	RXTXLostPackets 	0
scalar MyScenario.node[3].nic.mac1609_4 	TotalLostPackets 	0
scalar MyScenario.node[3].nic.mac1609_4 	DroppedPacketsInMac 	0
scalar MyScenario.node[3].nic.mac1609_4 	TooLittleTime 	0
scalar MyScenario.node[3].nic.mac1609_4 	TimesIntoBackoff 	19
scalar MyScenario.node[3].nic.mac1609_4 	SlotsBackoff 	30
scalar MyScenario.node[3].nic.mac1609_4 	NumInternalContention 	0
scalar MyScenario.node[3].nic.mac1609_4 	totalBusyTime 	0.008131
scalar MyScenario.node[3].veinsmobility 	startTime 	10800
scalar MyScenario.node[3].veinsmobility 	totalTime 	19
scalar MyScenario.node[3].veinsmobility 	stopTime 	10819.1
scalar MyScenario.node[3].veinsmobility 	minSpeed 	30.380997110267
scalar MyScenario.node[3].veinsmobility 	maxSpeed 	34.860688653081
scalar MyScenario.node[3].veinsmobility 	totalDistance 	604.55266583615
scalar MyScenario.node[3].veinsmobility 	totalCO2Emission 	73.748021822869
scalar MyScenario.node[0].appl 	generatedWSMs 	0
scalar MyScenario.node[0].appl 	receivedWSMs 	0
scalar MyScenario.node[0].appl 	generatedBSMs 	21
scalar MyScenario.node[0].appl 	receivedBSMs 	72
scalar MyScenario.node[0].appl 	generatedWSAs 	0
scalar MyScenario.node[0].appl 	receivedWSAs 	0
scalar MyScenario.node[0].nic.phy80211p 	busyTime 	0.00035488151658768
scalar MyScenario.node[0].nic.mac1609_4 	ReceivedUnicastPackets 	0
scalar MyScenario.node[0].nic.mac1609_4 	ReceivedBroadcasts 	72
scalar MyScenario.node[0].nic.mac1609_4 	SentPackets 	21
scalar MyScenario.node[0].nic.mac1609_4 	SNIRLostPackets 	0
scalar MyScenario.node[0].nic.mac1609_4 	RXTXLostPackets 	0
scalar MyScenario.node[0].nic.mac1609_4 	TotalLostPackets 	0
scalar MyScenario.node[0].nic.mac1609_4 	DroppedPacketsInMac 	0
scalar MyScenario.node[0].nic.mac1609_4 	TooLittleTime 	0
scalar MyScenario.node[0].nic.mac1609_4 	TimesIntoBackoff 	21
scalar MyScenario.node[0].nic.mac1609_4 	SlotsBackoff 	27
scalar MyScenario.node[0].nic.mac1609_4 	NumInternalContention 	0
scalar MyScenario.node[0].nic.mac1609_4 	totalBusyTime 	0.009693
scalar MyScenario.node[0].veinsmobility 	startTime 	10800
scalar MyScenario.node[0].veinsmobility 	totalTime 	21
scalar MyScenario.node[0].veinsmobility 	stopTime 	10821.1
scalar MyScenario.node[0].veinsmobility 	minSpeed 	30.714882766333
scalar MyScenario.node[0].veinsmobility 	maxSpeed 	30.863886419386
scalar MyScenario.node[0].veinsmobility 	totalDistance 	645.88840233214
scalar MyScenario.node[0].veinsmobility 	totalCO2Emission 	115.17778909669
scalar MyScenario.node[8].appl 	generatedWSMs 	0
scalar MyScenario.node[8].appl 	receivedWSMs 	0
scalar MyScenario.node[8].appl 	generatedBSMs 	24
scalar MyScenario.node[8].appl 	receivedBSMs 	0
scalar MyScenario.node[8].appl 	generatedWSAs 	0
scalar MyScenario.node[8].appl 	receivedWSAs 	0
scalar MyScenario.node[8].nic.phy80211p 	busyTime 	0
scalar MyScenario.node[8].nic.mac1609_4 	ReceivedUnicastPackets 	0
scalar MyScenario.node[8].nic.mac1609_4 	ReceivedBroadcasts 	0
scalar MyScenario.node[8].nic.mac1609_4 	SentPackets 	24
scalar MyScenario.node[8].nic.mac1609_4 	SNIRLostPackets 	0
scalar MyScenario.node[8].nic.mac1609_4 	RXTXLostPackets 	0
scalar MyScenario.node[8].nic.mac1609_4 	TotalLostPackets 	0
scalar MyScenario.node[8].nic.mac1609_4 	DroppedPacketsInMac 	0
scalar MyScenario.node[8].nic.mac1609_4 	TooLittleTime 	0
scalar MyScenario.node[8].nic.mac1609_4 	TimesIntoBackoff 	24
scalar MyScenario.node[8].nic.mac1609_4 	SlotsBackoff 	35
scalar MyScenario.node[8].nic.mac1609_4 	NumInternalContention 	0
scalar MyScenario.node[8].nic.mac1609_4 	totalBusyTime 	0.00252
scalar MyScenario.node[8].veinsmobility 	startTime 	10806.8
scalar MyScenario.node[8].veinsmobility 	totalTime 	23.4
scalar MyScenario.node[8].veinsmobility 	stopTime 	10830.3
scalar MyScenario.node[8].veinsmobility 	minSpeed 	13.321959960334
scalar MyScenario.node[8].veinsmobility 	maxSpeed 	16.143129993218
scalar MyScenario.node[8].veinsmobility 	totalDistance 	351.74212152471
scalar MyScenario.node[8].veinsmobility 	totalCO2Emission 	65.630819810538
scalar MyScenario.node[7].appl 	generatedWSMs 	0
scalar MyScenario.node[7].appl 	receivedWSMs 	0
scalar MyScenario.node[7].appl 	generatedBSMs 	28
scalar MyScenario.node[7].appl 	receivedBSMs 	74
scalar MyScenario.node[7].appl 	generatedWSAs 	0
scalar MyScenario.node[7].appl 	receivedWSAs 	0
scalar MyScenario.node[7].nic.phy80211p 	busyTime 	0.00027485714285714
scalar MyScenario.node[7].nic.mac1609_4 	ReceivedUnicastPackets 	0
scalar MyScenario.node[7].nic.mac1609_4 	ReceivedBroadcasts 	74
scalar MyScenario.node[7].nic.mac1609_4 	SentPackets 	28
scalar MyScenario.node[7].nic.mac1609_4 	SNIRLostPackets 	0
scalar MyScenario.node[7].nic.mac1609_4 	RXTXLostPackets 	0
scalar MyScenario.node[7].nic.mac1609_4 	TotalLostPackets 	0
scalar MyScenario.node[7].nic.mac1609_4 	DroppedPacketsInMac 	0
scalar MyScenario.node[7].nic.mac1609_4 	TooLittleTime 	0
scalar MyScenario.node[7].nic.mac1609_4 	TimesIntoBackoff 	28
scalar MyScenario.node[7].nic.mac1609_4 	SlotsBackoff 	48
scalar MyScenario.node[7].nic.mac1609_4 	NumInternalContention 	0
scalar MyScenario.node[7].nic.mac1609_4 	totalBusyTime 	0.010636
scalar MyScenario.node[7].veinsmobility 	startTime 	10806
scalar MyScenario.node[7].veinsmobility 	totalTime 	27.9
scalar MyScenario.node[7].veinsmobility 	stopTime 	10834
scalar MyScenario.node[7].veinsmobility 	minSpeed 	32.265408220644
scalar MyScenario.node[7].veinsmobility 	maxSpeed 	32.413221857291
scalar MyScenario.node[7].veinsmobility 	totalDistance 	902.15385616985
scalar MyScenario.node[7].veinsmobility 	totalCO2Emission 	168.84548049843
scalar MyScenario.node[9].appl 	generatedWSMs 	0
scalar MyScenario.node[9].appl 	receivedWSMs 	0
scalar MyScenario.node[9].appl 	generatedBSMs 	29
scalar MyScenario.node[9].appl 	receivedBSMs 	65
scalar MyScenario.node[9].appl 	generatedWSAs 	0
scalar MyScenario.node[9].appl 	receivedWSAs 	0
scalar MyScenario.node[9].nic.phy80211p 	busyTime 	0.00023391003460206
scalar MyScenario.node[9].nic.mac1609_4 	ReceivedUnicastPackets 	0
scalar MyScenario.node[9].nic.mac1609_4 	ReceivedBroadcasts 	65
scalar MyScenario.node[9].nic.mac1609_4 	SentPackets 	29
scalar MyScenario.node[9].nic.mac1609_4 	SNIRLostPackets 	0
scalar MyScenario.node[9].nic.mac1609_4 	RXTXLostPackets 	0
scalar MyScenario.node[9].nic.mac1609_4 	TotalLostPackets 	0
scalar MyScenario.node[9].nic.mac1609_4 	DroppedPacketsInMac 	0
scalar MyScenario.node[9].nic.mac1609_4 	TooLittleTime 	0
scalar MyScenario.node[9].nic.mac1609_4 	TimesIntoBackoff 	29
scalar MyScenario.node[9].nic.mac1609_4 	SlotsBackoff 	45
scalar MyScenario.node[9].nic.mac1609_4 	NumInternalContention 	0
scalar MyScenario.node[9].nic.mac1609_4 	totalBusyTime 	0.009805
scalar MyScenario.node[9].veinsmobility 	startTime 	10809.7
scalar MyScenario.node[9].veinsmobility 	totalTime 	28.8
scalar MyScenario.node[9].veinsmobility 	stopTime 	10838.6
scalar MyScenario.node[9].veinsmobility 	minSpeed 	31.204885435225
scalar MyScenario.node[9].veinsmobility 	maxSpeed 	31.339789300663
scalar MyScenario.node[9].veinsmobility 	totalDistance 	901.58082792436
scalar MyScenario.node[9].veinsmobility 	totalCO2Emission 	159.83680175234
scalar MyScenario.node[10].appl 	generatedWSMs 	0
scalar MyScenario.node[10].appl 	receivedWSMs 	0
scalar MyScenario.node[10].appl 	generatedBSMs 	30
scalar MyScenario.node[10].appl 	receivedBSMs 	128
scalar MyScenario.node[10].appl 	generatedWSAs 	0
scalar MyScenario.node[10].appl 	receivedWSAs 	0
scalar MyScenario.node[10].nic.phy80211p 	busyTime 	0.00044079470198675
scalar MyScenario.node[10].nic.mac1609_4 	ReceivedUnicastPackets 	0
scalar MyScenario.node[10].nic.mac1609_4 	ReceivedBroadcasts 	128
scalar MyScenario.node[10].nic.mac1609_4 	SentPackets 	30
scalar MyScenario.node[10].nic.mac1609_4 	SNIRLostPackets 	0
scalar MyScenario.node[10].nic.mac1609_4 	RXTXLostPackets 	0
scalar MyScenario.node[10].nic.mac1609_4 	TotalLostPackets 	0
scalar MyScenario.node[10].nic.mac1609_4 	DroppedPacketsInMac 	0
scalar MyScenario.node[10].nic.mac1609_4 	TooLittleTime 	0
scalar MyScenario.node[10].nic.mac1609_4 	TimesIntoBackoff 	30
scalar MyScenario.node[10].nic.mac1609_4 	SlotsBackoff 	42
scalar MyScenario.node[10].nic.mac1609_4 	NumInternalContention 	0
scalar MyScenario.node[10].nic.mac1609_4 	totalBusyTime 	0.016462
scalar MyScenario.node[10].veinsmobility 	startTime 	10816.1
scalar MyScenario.node[10].veinsmobility 	totalTime 	30.1
scalar MyScenario.node[10].veinsmobility 	stopTime 	10846.3
scalar MyScenario.node[10].veinsmobility 	minSpeed 	29.880295309201
scalar MyScenario.node[10].veinsmobility 	maxSpeed 	29.999603022309
scalar MyScenario.node[10].veinsmobility 	totalDistance 	900.18054138286
scalar MyScenario.node[10].veinsmobility 	totalCO2Emission 	154.37385126994
scalar MyScenario.node[11].appl 	generatedWSMs 	0
scalar MyScenario.node[11].appl 	receivedWSMs 	0
scalar MyScenario.node[11].appl 	generatedBSMs 	30
scalar MyScenario.node[11].appl 	receivedBSMs 	142
scalar MyScenario.node[11].appl 	generatedWSAs 	0
scalar MyScenario.node[11].appl 	receivedWSAs 	0
scalar MyScenario.node[11].nic.phy80211p 	busyTime 	0.00049391304347823
scalar MyScenario.node[11].nic.mac1609_4 	ReceivedUnicastPackets 	0
scalar MyScenario.node[11].nic.mac1609_4 	ReceivedBroadcasts 	142
scalar MyScenario.node[11].nic.mac1609_4 	SentPackets 	30
scalar MyScenario.node[11].nic.mac1609_4 	SNIRLostPackets 	0
scalar MyScenario.node[11].nic.mac1609_4 	RXTXLostPackets 	0
scalar MyScenario.node[11].nic.mac1609_4 	TotalLostPackets 	0
scalar MyScenario.node[11].nic.mac1609_4 	DroppedPacketsInMac 	0
scalar MyScenario.node[11].nic.mac1609_4 	TooLittleTime 	0
scalar MyScenario.node[11].nic.mac1609_4 	TimesIntoBackoff 	30
scalar MyScenario.node[11].nic.mac1609_4 	SlotsBackoff 	49
scalar MyScenario.node[11].nic.mac1609_4 	NumInternalContention 	0
scalar MyScenario.node[11].nic.mac1609_4 	totalBusyTime 	0.017918
scalar MyScenario.node[11].veinsmobility 	startTime 	10817.7
scalar MyScenario.node[11].veinsmobility 	totalTime 	29.8
scalar MyScenario.node[11].veinsmobility 	stopTime 	10847.6
scalar MyScenario.node[11].veinsmobility 	minSpeed 	29.916812100081
scalar MyScenario.node[11].veinsmobility 	maxSpeed 	31.633487686608
scalar MyScenario.node[11].veinsmobility 	totalDistance 	903.56949558218
scalar MyScenario.node[11].veinsmobility 	totalCO2Emission 	154.39570400834
scalar MyScenario.node[14].appl 	generatedWSMs 	0
scalar MyScenario.node[14].appl 	receivedWSMs 	0
scalar MyScenario.node[14].appl 	generatedBSMs 	23
scalar MyScenario.node[14].appl 	receivedBSMs 	151
scalar MyScenario.node[14].appl 	generatedWSAs 	0
scalar MyScenario.node[14].appl 	receivedWSAs 	0
scalar MyScenario.node[14].nic.phy80211p 	busyTime 	0.00066983050847452
scalar MyScenario.node[14].nic.mac1609_4 	ReceivedUnicastPackets 	0
scalar MyScenario.node[14].nic.mac1609_4 	ReceivedBroadcasts 	151
scalar MyScenario.node[14].nic.mac1609_4 	SentPackets 	23
scalar MyScenario.node[14].nic.mac1609_4 	SNIRLostPackets 	1
scalar MyScenario.node[14].nic.mac1609_4 	RXTXLostPackets 	0
scalar MyScenario.node[14].nic.mac1609_4 	TotalLostPackets 	1
scalar MyScenario.node[14].nic.mac1609_4 	DroppedPacketsInMac 	0
scalar MyScenario.node[14].nic.mac1609_4 	TooLittleTime 	0
scalar MyScenario.node[14].nic.mac1609_4 	TimesIntoBackoff 	23
scalar MyScenario.node[14].nic.mac1609_4 	SlotsBackoff 	42
scalar MyScenario.node[14].nic.mac1609_4 	NumInternalContention 	0
scalar MyScenario.node[14].nic.mac1609_4 	totalBusyTime 	0.018223
scalar MyScenario.node[14].veinsmobility 	startTime 	10830.2
scalar MyScenario.node[14].veinsmobility 	totalTime 	23.5
scalar MyScenario.node[14].veinsmobility 	stopTime 	10853.8
scalar MyScenario.node[14].veinsmobility 	minSpeed 	38.323627671586
scalar MyScenario.node[14].veinsmobility 	maxSpeed 	38.473433714102
scalar MyScenario.node[14].veinsmobility 	totalDistance 	902.2483072567
scalar MyScenario.node[14].veinsmobility 	totalCO2Emission 	192.4573266326
scalar MyScenario.node[15].appl 	generatedWSMs 	0
scalar MyScenario.node[15].appl 	receivedWSMs 	0
scalar MyScenario.node[15].appl 	generatedBSMs 	29
scalar MyScenario.node[15].appl 	receivedBSMs 	189
scalar MyScenario.node[15].appl 	generatedWSAs 	0
scalar MyScenario.node[15].appl 	receivedWSAs 	0
scalar MyScenario.node[15].nic.phy80211p 	busyTime 	0.00069211267605634
scalar MyScenario.node[15].nic.mac1609_4 	ReceivedUnicastPackets 	0
scalar MyScenario.node[15].nic.mac1609_4 	ReceivedBroadcasts 	189
scalar MyScenario.node[15].nic.mac1609_4 	SentPackets 	29
scalar MyScenario.node[15].nic.mac1609_4 	SNIRLostPackets 	0
scalar MyScenario.node[15].nic.mac1609_4 	RXTXLostPackets 	0
scalar MyScenario.node[15].nic.mac1609_4 	TotalLostPackets 	0
scalar MyScenario.node[15].nic.mac1609_4 	DroppedPacketsInMac 	0
scalar MyScenario.node[15].nic.mac1609_4 	TooLittleTime 	0
scalar MyScenario.node[15].nic.mac1609_4 	TimesIntoBackoff 	29
scalar MyScenario.node[15].nic.mac1609_4 	SlotsBackoff 	45
scalar MyScenario.node[15].nic.mac1609_4 	NumInternalContention 	0
scalar MyScenario.node[15].nic.mac1609_4 	totalBusyTime 	0.022701
scalar MyScenario.node[15].veinsmobility 	startTime 	10831
scalar MyScenario.node[15].veinsmobility 	totalTime 	28.3
scalar MyScenario.node[15].veinsmobility 	stopTime 	10859.4
scalar MyScenario.node[15].veinsmobility 	minSpeed 	30.504814359896
scalar MyScenario.node[15].veinsmobility 	maxSpeed 	32.166108629387
scalar MyScenario.node[15].veinsmobility 	totalDistance 	902.73101430497
scalar MyScenario.node[15].veinsmobility 	totalCO2Emission 	166.05980157323
scalar MyScenario.node[13].appl 	generatedWSMs 	0
scalar MyScenario.node[13].appl 	receivedWSMs 	0
scalar MyScenario.node[13].appl 	generatedBSMs 	31
scalar MyScenario.node[13].appl 	receivedBSMs 	192
scalar MyScenario.node[13].appl 	generatedWSAs 	0
scalar MyScenario.node[13].appl 	receivedWSAs 	0
scalar MyScenario.node[13].nic.phy80211p 	busyTime 	0.0006525490196078
scalar MyScenario.node[13].nic.mac1609_4 	ReceivedUnicastPackets 	0
scalar MyScenario.node[13].nic.mac1609_4 	ReceivedBroadcasts 	192
scalar MyScenario.node[13].nic.mac1609_4 	SentPackets 	31
scalar MyScenario.node[13].nic.mac1609_4 	SNIRLostPackets 	0
scalar MyScenario.node[13].nic.mac1609_4 	RXTXLostPackets 	0
scalar MyScenario.node[13].nic.mac1609_4 	TotalLostPackets 	0
scalar MyScenario.node[13].nic.mac1609_4 	DroppedPacketsInMac 	0
scalar MyScenario.node[13].nic.mac1609_4 	TooLittleTime 	0
scalar MyScenario.node[13].nic.mac1609_4 	TimesIntoBackoff 	31
scalar MyScenario.node[13].nic.mac1609_4 	SlotsBackoff 	39
scalar MyScenario.node[13].nic.mac1609_4 	NumInternalContention 	0
scalar MyScenario.node[13].nic.mac1609_4 	totalBusyTime 	0.023223
scalar MyScenario.node[13].veinsmobility 	startTime 	10829.2
scalar MyScenario.node[13].veinsmobility 	totalTime 	30.5
scalar MyScenario.node[13].veinsmobility 	stopTime 	10859.8
scalar MyScenario.node[13].veinsmobility 	minSpeed 	29.497022618893
scalar MyScenario.node[13].veinsmobility 	maxSpeed 	29.625399956798
scalar MyScenario.node[13].veinsmobility 	totalDistance 	900.62387236764
scalar MyScenario.node[13].veinsmobility 	totalCO2Emission 	153.14210021457
scalar MyScenario.node[19].appl 	generatedWSMs 	0
scalar MyScenario.node[19].appl 	receivedWSMs 	0
scalar MyScenario.node[19].appl 	generatedBSMs 	26
scalar MyScenario.node[19].appl 	receivedBSMs 	172
scalar MyScenario.node[19].appl 	generatedWSAs 	0
scalar MyScenario.node[19].appl 	receivedWSAs 	0
scalar MyScenario.node[19].nic.phy80211p 	busyTime 	0.00069875
scalar MyScenario.node[19].nic.mac1609_4 	ReceivedUnicastPackets 	0
scalar MyScenario.node[19].nic.mac1609_4 	ReceivedBroadcasts 	172
scalar MyScenario.node[19].nic.mac1609_4 	SentPackets 	26
scalar MyScenario.node[19].nic.mac1609_4 	SNIRLostPackets 	0
scalar MyScenario.node[19].nic.mac1609_4 	RXTXLostPackets 	0
scalar MyScenario.node[19].nic.mac1609_4 	TotalLostPackets 	0
scalar MyScenario.node[19].nic.mac1609_4 	DroppedPacketsInMac 	0
scalar MyScenario.node[19].nic.mac1609_4 	TooLittleTime 	0
scalar MyScenario.node[19].nic.mac1609_4 	TimesIntoBackoff 	26
scalar MyScenario.node[19].nic.mac1609_4 	SlotsBackoff 	41
scalar MyScenario.node[19].nic.mac1609_4 	NumInternalContention 	0
scalar MyScenario.node[19].nic.mac1609_4 	totalBusyTime 	0.020618
scalar MyScenario.node[19].veinsmobility 	startTime 	10837.8
scalar MyScenario.node[19].veinsmobility 	totalTime 	25.5
scalar MyScenario.node[19].veinsmobility 	stopTime 	10863.4
scalar MyScenario.node[19].veinsmobility 	minSpeed 	35.317158658882
scalar MyScenario.node[19].veinsmobility 	maxSpeed 	35.454498948032
scalar MyScenario.node[19].veinsmobility 	totalDistance 	901.34734251345
scalar MyScenario.node[19].veinsmobility 	totalCO2Emission 	176.67925981024
scalar MyScenario.node[16].appl 	generatedWSMs 	0
scalar MyScenario.node[16].appl 	receivedWSMs 	0
scalar MyScenario.node[16].appl 	generatedBSMs 	30
scalar MyScenario.node[16].appl 	receivedBSMs 	228
scalar MyScenario.node[16].appl 	generatedWSAs 	0
scalar MyScenario.node[16].appl 	receivedWSAs 	0
scalar MyScenario.node[16].nic.phy80211p 	busyTime 	0.00079386666666667
scalar MyScenario.node[16].nic.mac1609_4 	ReceivedUnicastPackets 	0
scalar MyScenario.node[16].nic.mac1609_4 	ReceivedBroadcasts 	228
scalar MyScenario.node[16].nic.mac1609_4 	SentPackets 	30
scalar MyScenario.node[16].nic.mac1609_4 	SNIRLostPackets 	1
scalar MyScenario.node[16].nic.mac1609_4 	RXTXLostPackets 	0
scalar MyScenario.node[16].nic.mac1609_4 	TotalLostPackets 	1
scalar MyScenario.node[16].nic.mac1609_4 	DroppedPacketsInMac 	0
scalar MyScenario.node[16].nic.mac1609_4 	TooLittleTime 	0
scalar MyScenario.node[16].nic.mac1609_4 	TimesIntoBackoff 	30
scalar MyScenario.node[16].nic.mac1609_4 	SlotsBackoff 	42
scalar MyScenario.node[16].nic.mac1609_4 	NumInternalContention 	0
scalar MyScenario.node[16].nic.mac1609_4 	totalBusyTime 	0.026966
scalar MyScenario.node[16].veinsmobility 	startTime 	10834.3
scalar MyScenario.node[16].veinsmobility 	totalTime 	29.9
scalar MyScenario.node[16].veinsmobility 	stopTime 	10864.3
scalar MyScenario.node[16].veinsmobility 	minSpeed 	30.1135292651
scalar MyScenario.node[16].veinsmobility 	maxSpeed 	30.252615726852
scalar MyScenario.node[16].veinsmobility 	totalDistance 	903.46457357108
scalar MyScenario.node[16].veinsmobility 	totalCO2Emission 	159.60790710454
scalar MyScenario.node[17].appl 	generatedWSMs 	0
scalar MyScenario.node[17].appl 	receivedWSMs 	0
scalar MyScenario.node[17].appl 	generatedBSMs 	30
scalar MyScenario.node[17].appl 	receivedBSMs 	236
scalar MyScenario.node[17].appl 	generatedWSAs 	0
scalar MyScenario.node[17].appl 	receivedWSAs 	0
scalar MyScenario.node[17].nic.phy80211p 	busyTime 	0.00081813333333333
scalar MyScenario.node[17].nic.mac1609_4 	ReceivedUnicastPackets 	0
scalar MyScenario.node[17].nic.mac1609_4 	ReceivedBroadcasts 	236
scalar MyScenario.node[17].nic.mac1609_4 	SentPackets 	30
scalar MyScenario.node[17].nic.mac1609_4 	SNIRLostPackets 	0
scalar MyScenario.node[17].nic.mac1609_4 	RXTXLostPackets 	0
scalar MyScenario.node[17].nic.mac1609_4 	TotalLostPackets 	0
scalar MyScenario.node[17].nic.mac1609_4 	DroppedPacketsInMac 	0
scalar MyScenario.node[17].nic.mac1609_4 	TooLittleTime 	0
scalar MyScenario.node[17].nic.mac1609_4 	TimesIntoBackoff 	30
scalar MyScenario.node[17].nic.mac1609_4 	SlotsBackoff 	50
scalar MyScenario.node[17].nic.mac1609_4 	NumInternalContention 	0
scalar MyScenario.node[17].nic.mac1609_4 	totalBusyTime 	0.027694
scalar MyScenario.node[17].veinsmobility 	startTime 	10835.5
scalar MyScenario.node[17].veinsmobility 	totalTime 	29.9
scalar MyScenario.node[17].veinsmobility 	stopTime 	10865.5
scalar MyScenario.node[17].veinsmobility 	minSpeed 	30.043454958858
scalar MyScenario.node[17].veinsmobility 	maxSpeed 	30.290888282072
scalar MyScenario.node[17].veinsmobility 	totalDistance 	903.32023990889
scalar MyScenario.node[17].veinsmobility 	totalCO2Emission 	168.82364169116
scalar MyScenario.node[18].appl 	generatedWSMs 	0
scalar MyScenario.node[18].appl 	receivedWSMs 	0
scalar MyScenario.node[18].appl 	generatedBSMs 	30
scalar MyScenario.node[18].appl 	receivedBSMs 	231
scalar MyScenario.node[18].appl 	generatedWSAs 	0
scalar MyScenario.node[18].appl 	receivedWSAs 	0
scalar MyScenario.node[18].nic.phy80211p 	busyTime 	0.00080079999999995
scalar MyScenario.node[18].nic.mac1609_4 	ReceivedUnicastPackets 	0
scalar MyScenario.node[18].nic.mac1609_4 	ReceivedBroadcasts 	231
scalar MyScenario.node[18].nic.mac1609_4 	SentPackets 	30
scalar MyScenario.node[18].nic.mac1609_4 	SNIRLostPackets 	0
scalar MyScenario.node[18].nic.mac1609_4 	RXTXLostPackets 	0
scalar MyScenario.node[18].nic.mac1609_4 	TotalLostPackets 	0
scalar MyScenario.node[18].nic.mac1609_4 	DroppedPacketsInMac 	0
scalar MyScenario.node[18].nic.mac1609_4 	TooLittleTime 	0
scalar MyScenario.node[18].nic.mac1609_4 	TimesIntoBackoff 	30
scalar MyScenario.node[18].nic.mac1609_4 	SlotsBackoff 	44
scalar MyScenario.node[18].nic.mac1609_4 	NumInternalContention 	0
scalar MyScenario.node[18].nic.mac1609_4 	totalBusyTime 	0.027174
scalar MyScenario.node[18].veinsmobility 	startTime 	10836.7
scalar MyScenario.node[18].veinsmobility 	totalTime 	29.9
scalar MyScenario.node[18].veinsmobility 	stopTime 	10866.7
scalar MyScenario.node[18].veinsmobility 	minSpeed 	30.022048923355
scalar MyScenario.node[18].veinsmobility 	maxSpeed 	30.356509117993
scalar MyScenario.node[18].veinsmobility 	totalDistance 	904.01711318527
scalar MyScenario.node[18].veinsmobility 	totalCO2Emission 	177.62437254981
scalar MyScenario.node[20].appl 	generatedWSMs 	0
scalar MyScenario.node[20].appl 	receivedWSMs 	0
scalar MyScenario.node[20].appl 	generatedBSMs 	25
scalar MyScenario.node[20].appl 	receivedBSMs 	168
scalar MyScenario.node[20].appl 	generatedWSAs 	0
scalar MyScenario.node[20].appl 	receivedWSAs 	0
scalar MyScenario.node[20].nic.phy80211p 	busyTime 	0.00068517647058823
scalar MyScenario.node[20].nic.mac1609_4 	ReceivedUnicastPackets 	0
scalar MyScenario.node[20].nic.mac1609_4 	ReceivedBroadcasts 	168
scalar MyScenario.node[20].nic.mac1609_4 	SentPackets 	25
scalar MyScenario.node[20].nic.mac1609_4 	SNIRLostPackets 	0
scalar MyScenario.node[20].nic.mac1609_4 	RXTXLostPackets 	0
scalar MyScenario.node[20].nic.mac1609_4 	TotalLostPackets 	0
scalar MyScenario.node[20].nic.mac1609_4 	DroppedPacketsInMac 	0
scalar MyScenario.node[20].nic.mac1609_4 	TooLittleTime 	0
scalar MyScenario.node[20].nic.mac1609_4 	TimesIntoBackoff 	25
scalar MyScenario.node[20].nic.mac1609_4 	SlotsBackoff 	40
scalar MyScenario.node[20].nic.mac1609_4 	NumInternalContention 	0
scalar MyScenario.node[20].nic.mac1609_4 	totalBusyTime 	0.020097
scalar MyScenario.node[20].veinsmobility 	startTime 	10841.5
scalar MyScenario.node[20].veinsmobility 	totalTime 	25.4
scalar MyScenario.node[20].veinsmobility 	stopTime 	10867
scalar MyScenario.node[20].veinsmobility 	minSpeed 	35.458856247236
scalar MyScenario.node[20].veinsmobility 	maxSpeed 	35.58857505237
scalar MyScenario.node[20].veinsmobility 	totalDistance 	901.29335528229
scalar MyScenario.node[20].veinsmobility 	totalCO2Emission 	176.97484467532
scalar MyScenario.node[21].appl 	generatedWSMs 	0
scalar MyScenario.node[21].appl 	receivedWSMs 	0
scalar MyScenario.node[21].appl 	generatedBSMs 	26
scalar MyScenario.node[21].appl 	receivedBSMs 	174
scalar MyScenario.node[21].appl 	generatedWSAs 	0
scalar MyScenario.node[21].appl 	receivedWSAs 	0
scalar MyScenario.node[21].nic.phy80211p 	busyTime 	0.000696
scalar MyScenario.node[21].nic.mac1609_4 	ReceivedUnicastPackets 	0
scalar MyScenario.node[21].nic.mac1609_4 	ReceivedBroadcasts 	174
scalar MyScenario.node[21].nic.mac1609_4 	SentPackets 	26
scalar MyScenario.node[21].nic.mac1609_4 	SNIRLostPackets 	0
scalar MyScenario.node[21].nic.mac1609_4 	RXTXLostPackets 	0
scalar MyScenario.node[21].nic.mac1609_4 	TotalLostPackets 	0
scalar MyScenario.node[21].nic.mac1609_4 	DroppedPacketsInMac 	0
scalar MyScenario.node[21].nic.mac1609_4 	TooLittleTime 	0
scalar MyScenario.node[21].nic.mac1609_4 	TimesIntoBackoff 	26
scalar MyScenario.node[21].nic.mac1609_4 	SlotsBackoff 	37
scalar MyScenario.node[21].nic.mac1609_4 	NumInternalContention 	0
scalar MyScenario.node[21].nic.mac1609_4 	totalBusyTime 	0.020826
scalar MyScenario.node[21].veinsmobility 	startTime 	10843.5
scalar MyScenario.node[21].veinsmobility 	totalTime 	25.9
scalar MyScenario.node[21].veinsmobility 	stopTime 	10869.5
scalar MyScenario.node[21].veinsmobility 	minSpeed 	34.766936230285
scalar MyScenario.node[21].veinsmobility 	maxSpeed 	34.895089987796
scalar MyScenario.node[21].veinsmobility 	totalDistance 	900.96827069411
scalar MyScenario.node[21].veinsmobility 	totalCO2Emission 	172.74573799856
scalar MyScenario.node[22].appl 	generatedWSMs 	0
scalar MyScenario.node[22].appl 	receivedWSMs 	0
scalar MyScenario.node[22].appl 	generatedBSMs 	30
scalar MyScenario.node[22].appl 	receivedBSMs 	218
scalar MyScenario.node[22].appl 	generatedWSAs 	0
scalar MyScenario.node[22].appl 	receivedWSAs 	0
scalar MyScenario.node[22].nic.phy80211p 	busyTime 	0.00075072847682114
scalar MyScenario.node[22].nic.mac1609_4 	ReceivedUnicastPackets 	0
scalar MyScenario.node[22].nic.mac1609_4 	ReceivedBroadcasts 	218
scalar MyScenario.node[22].nic.mac1609_4 	SentPackets 	30
scalar MyScenario.node[22].nic.mac1609_4 	SNIRLostPackets 	0
scalar MyScenario.node[22].nic.mac1609_4 	RXTXLostPackets 	0
scalar MyScenario.node[22].nic.mac1609_4 	TotalLostPackets 	0
scalar MyScenario.node[22].nic.mac1609_4 	DroppedPacketsInMac 	0
scalar MyScenario.node[22].nic.mac1609_4 	TooLittleTime 	0
scalar MyScenario.node[22].nic.mac1609_4 	TimesIntoBackoff 	30
scalar MyScenario.node[22].nic.mac1609_4 	SlotsBackoff 	47
scalar MyScenario.node[22].nic.mac1609_4 	NumInternalContention 	0
scalar MyScenario.node[22].nic.mac1609_4 	totalBusyTime 	0.025822
scalar MyScenario.node[22].veinsmobility 	startTime 	10844.2
scalar MyScenario.node[22].veinsmobility 	totalTime 	30.1
scalar MyScenario.node[22].veinsmobility 	stopTime 	10874.4
scalar MyScenario.node[22].veinsmobility 	minSpeed 	29.885041730832
scalar MyScenario.node[22].veinsmobility 	maxSpeed 	29.999255160053
scalar MyScenario.node[22].veinsmobility 	totalDistance 	902.24039655151
scalar MyScenario.node[22].veinsmobility 	totalCO2Emission 	153.42762394195
scalar MyScenario.node[23].appl 	generatedWSMs 	0
scalar MyScenario.node[23].appl 	receivedWSMs 	0
scalar MyScenario.node[23].appl 	generatedBSMs 	30
scalar MyScenario.node[23].appl 	receivedBSMs 	184
scalar MyScenario.node[23].appl 	generatedWSAs 	0
scalar MyScenario.node[23].appl 	receivedWSAs 	0
scalar MyScenario.node[23].nic.phy80211p 	busyTime 	0.00063574750830565
scalar MyScenario.node[23].nic.mac1609_4 	ReceivedUnicastPackets 	0
scalar MyScenario.node[23].nic.mac1609_4 	ReceivedBroadcasts 	184
scalar MyScenario.node[23].nic.mac1609_4 	SentPackets 	30
scalar MyScenario.node[23].nic.mac1609_4 	SNIRLostPackets 	0
scalar MyScenario.node[23].nic.mac1609_4 	RXTXLostPackets 	0
scalar MyScenario.node[23].nic.mac1609_4 	TotalLostPackets 	0
scalar MyScenario.node[23].nic.mac1609_4 	DroppedPacketsInMac 	0
scalar MyScenario.node[23].nic.mac1609_4 	TooLittleTime 	0
scalar MyScenario.node[23].nic.mac1609_4 	TimesIntoBackoff 	30
scalar MyScenario.node[23].nic.mac1609_4 	SlotsBackoff 	49
scalar MyScenario.node[23].nic.mac1609_4 	NumInternalContention 	0
scalar MyScenario.node[23].nic.mac1609_4 	totalBusyTime 	0.022286
scalar MyScenario.node[23].veinsmobility 	startTime 	10845.6
scalar MyScenario.node[23].veinsmobility 	totalTime 	30
scalar MyScenario.node[23].veinsmobility 	stopTime 	10875.7
scalar MyScenario.node[23].veinsmobility 	minSpeed 	29.847299537066
scalar MyScenario.node[23].veinsmobility 	maxSpeed 	30.138216091087
scalar MyScenario.node[23].veinsmobility 	totalDistance 	900.34135342561
scalar MyScenario.node[23].veinsmobility 	totalCO2Emission 	161.15556754542
scalar MyScenario.node[25].appl 	generatedWSMs 	0
scalar MyScenario.node[25].appl 	receivedWSMs 	0
scalar MyScenario.node[25].appl 	generatedBSMs 	25
scalar MyScenario.node[25].appl 	receivedBSMs 	142
scalar MyScenario.node[25].appl 	generatedWSAs 	0
scalar MyScenario.node[25].appl 	receivedWSAs 	0
scalar MyScenario.node[25].nic.phy80211p 	busyTime 	0.00059015873015868
scalar MyScenario.node[25].nic.mac1609_4 	ReceivedUnicastPackets 	0
scalar MyScenario.node[25].nic.mac1609_4 	ReceivedBroadcasts 	142
scalar MyScenario.node[25].nic.mac1609_4 	SentPackets 	25
scalar MyScenario.node[25].nic.mac1609_4 	SNIRLostPackets 	1
scalar MyScenario.node[25].nic.mac1609_4 	RXTXLostPackets 	0
scalar MyScenario.node[25].nic.mac1609_4 	TotalLostPackets 	1
scalar MyScenario.node[25].nic.mac1609_4 	DroppedPacketsInMac 	0
scalar MyScenario.node[25].nic.mac1609_4 	TooLittleTime 	0
scalar MyScenario.node[25].nic.mac1609_4 	TimesIntoBackoff 	25
scalar MyScenario.node[25].nic.mac1609_4 	SlotsBackoff 	41
scalar MyScenario.node[25].nic.mac1609_4 	NumInternalContention 	0
scalar MyScenario.node[25].nic.mac1609_4 	totalBusyTime 	0.017497
scalar MyScenario.node[25].veinsmobility 	startTime 	10851.7
scalar MyScenario.node[25].veinsmobility 	totalTime 	25.1
scalar MyScenario.node[25].veinsmobility 	stopTime 	10876.9
scalar MyScenario.node[25].veinsmobility 	minSpeed 	35.915872094336
scalar MyScenario.node[25].veinsmobility 	maxSpeed 	36.054753787888
scalar MyScenario.node[25].veinsmobility 	totalDistance 	902.1492513071
scalar MyScenario.node[25].veinsmobility 	totalCO2Emission 	181.15048343934
scalar MyScenario.node[24].appl 	generatedWSMs 	0
scalar MyScenario.node[24].appl 	receivedWSMs 	0
scalar MyScenario.node[24].appl 	generatedBSMs 	30
scalar MyScenario.node[24].appl 	receivedBSMs 	183
scalar MyScenario.node[24].appl 	generatedWSAs 	0
scalar MyScenario.node[24].appl 	receivedWSAs 	0
scalar MyScenario.node[24].nic.phy80211p 	busyTime 	0.00063229235880399
scalar MyScenario.node[24].nic.mac1609_4 	ReceivedUnicastPackets 	0
scalar MyScenario.node[24].nic.mac1609_4 	ReceivedBroadcasts 	183
scalar MyScenario.node[24].nic.mac1609_4 	SentPackets 	30
scalar MyScenario.node[24].nic.mac1609_4 	SNIRLostPackets 	0
scalar MyScenario.node[24].nic.mac1609_4 	RXTXLostPackets 	0
scalar MyScenario.node[24].nic.mac1609_4 	TotalLostPackets 	0
scalar MyScenario.node[24].nic.mac1609_4 	DroppedPacketsInMac 	0
scalar MyScenario.node[24].nic.mac1609_4 	TooLittleTime 	0
scalar MyScenario.node[24].nic.mac1609_4 	TimesIntoBackoff 	30
scalar MyScenario.node[24].nic.mac1609_4 	SlotsBackoff 	57
scalar MyScenario.node[24].nic.mac1609_4 	NumInternalContention 	0
scalar MyScenario.node[24].nic.mac1609_4 	totalBusyTime 	0.022182
scalar MyScenario.node[24].veinsmobility 	startTime 	10846.8
scalar MyScenario.node[24].veinsmobility 	totalTime 	30
scalar MyScenario.node[24].veinsmobility 	stopTime 	10876.9
scalar MyScenario.node[24].veinsmobility 	minSpeed 	29.833032845926
scalar MyScenario.node[24].veinsmobility 	maxSpeed 	30.201202494515
scalar MyScenario.node[24].veinsmobility 	totalDistance 	900.64281222291
scalar MyScenario.node[24].veinsmobility 	totalCO2Emission 	173.8347951877
scalar MyScenario.node[26].appl 	generatedWSMs 	0
scalar MyScenario.node[26].appl 	receivedWSMs 	0
scalar MyScenario.node[26].appl 	generatedBSMs 	24
scalar MyScenario.node[26].appl 	receivedBSMs 	89
scalar MyScenario.node[26].appl 	generatedWSAs 	0
scalar MyScenario.node[26].appl 	receivedWSAs 	0
scalar MyScenario.node[26].nic.phy80211p 	busyTime 	0.00038090534979421
scalar MyScenario.node[26].nic.mac1609_4 	ReceivedUnicastPackets 	0
scalar MyScenario.node[26].nic.mac1609_4 	ReceivedBroadcasts 	89
scalar MyScenario.node[26].nic.mac1609_4 	SentPackets 	24
scalar MyScenario.node[26].nic.mac1609_4 	SNIRLostPackets 	0
scalar MyScenario.node[26].nic.mac1609_4 	RXTXLostPackets 	0
scalar MyScenario.node[26].nic.mac1609_4 	TotalLostPackets 	0
scalar MyScenario.node[26].nic.mac1609_4 	DroppedPacketsInMac 	0
scalar MyScenario.node[26].nic.mac1609_4 	TooLittleTime 	0
scalar MyScenario.node[26].nic.mac1609_4 	TimesIntoBackoff 	24
scalar MyScenario.node[26].nic.mac1609_4 	SlotsBackoff 	32
scalar MyScenario.node[26].nic.mac1609_4 	NumInternalContention 	0
scalar MyScenario.node[26].nic.mac1609_4 	totalBusyTime 	0.011776
scalar MyScenario.node[26].veinsmobility 	startTime 	10861.2
scalar MyScenario.node[26].veinsmobility 	totalTime 	24.2
scalar MyScenario.node[26].veinsmobility 	stopTime 	10885.5
scalar MyScenario.node[26].veinsmobility 	minSpeed 	37.144479975322
scalar MyScenario.node[26].veinsmobility 	maxSpeed 	37.27894443712
scalar MyScenario.node[26].veinsmobility 	totalDistance 	899.56877429023
scalar MyScenario.node[26].veinsmobility 	totalCO2Emission 	184.99967135427
scalar MyScenario.node[29].appl 	generatedWSMs 	0
scalar MyScenario.node[29].appl 	receivedWSMs 	0
scalar MyScenario.node[29].appl 	generatedBSMs 	23
scalar MyScenario.node[29].appl 	receivedBSMs 	6
scalar MyScenario.node[29].appl 	generatedWSAs 	0
scalar MyScenario.node[29].appl 	receivedWSAs 	0
scalar MyScenario.node[29].nic.phy80211p 	busyTime 	2.7012987012987e-05
scalar MyScenario.node[29].nic.mac1609_4 	ReceivedUnicastPackets 	0
scalar MyScenario.node[29].nic.mac1609_4 	ReceivedBroadcasts 	6
scalar MyScenario.node[29].nic.mac1609_4 	SentPackets 	23
scalar MyScenario.node[29].nic.mac1609_4 	SNIRLostPackets 	0
scalar MyScenario.node[29].nic.mac1609_4 	RXTXLostPackets 	0
scalar MyScenario.node[29].nic.mac1609_4 	TotalLostPackets 	0
scalar MyScenario.node[29].nic.mac1609_4 	DroppedPacketsInMac 	0
scalar MyScenario.node[29].nic.mac1609_4 	TooLittleTime 	0
scalar MyScenario.node[29].nic.mac1609_4 	TimesIntoBackoff 	23
scalar MyScenario.node[29].nic.mac1609_4 	SlotsBackoff 	35
scalar MyScenario.node[29].nic.mac1609_4 	NumInternalContention 	0
scalar MyScenario.node[29].nic.mac1609_4 	totalBusyTime 	0.003039
scalar MyScenario.node[29].veinsmobility 	startTime 	10874.4
scalar MyScenario.node[29].veinsmobility 	totalTime 	23
scalar MyScenario.node[29].veinsmobility 	stopTime 	10897.5
scalar MyScenario.node[29].veinsmobility 	minSpeed 	3.4875696070334
scalar MyScenario.node[29].veinsmobility 	maxSpeed 	18.288215322695
scalar MyScenario.node[29].veinsmobility 	totalDistance 	316.42279573167
scalar MyScenario.node[29].veinsmobility 	totalCO2Emission 	74.778367732157
scalar MyScenario.node[35].appl 	generatedWSMs 	0
scalar MyScenario.node[35].appl 	receivedWSMs 	0
scalar MyScenario.node[35].appl 	generatedBSMs 	2
scalar MyScenario.node[35].appl 	receivedBSMs 	10
scalar MyScenario.node[35].appl 	generatedWSAs 	0
scalar MyScenario.node[35].appl 	receivedWSAs 	0
scalar MyScenario.node[35].nic.phy80211p 	busyTime 	0.000416
scalar MyScenario.node[35].nic.mac1609_4 	ReceivedUnicastPackets 	0
scalar MyScenario.node[35].nic.mac1609_4 	ReceivedBroadcasts 	10
scalar MyScenario.node[35].nic.mac1609_4 	SentPackets 	2
scalar MyScenario.node[35].nic.mac1609_4 	SNIRLostPackets 	0
scalar MyScenario.node[35].nic.mac1609_4 	RXTXLostPackets 	0
scalar MyScenario.node[35].nic.mac1609_4 	TotalLostPackets 	0
scalar MyScenario.node[35].nic.mac1609_4 	DroppedPacketsInMac 	0
scalar MyScenario.node[35].nic.mac1609_4 	TooLittleTime 	0
scalar MyScenario.node[35].nic.mac1609_4 	TimesIntoBackoff 	2
scalar MyScenario.node[35].nic.mac1609_4 	SlotsBackoff 	0
scalar MyScenario.node[35].nic.mac1609_4 	NumInternalContention 	0
scalar MyScenario.node[35].nic.mac1609_4 	totalBusyTime 	0.00125
scalar MyScenario.node[35].veinsmobility 	startTime 	10897.5
scalar MyScenario.node[35].veinsmobility 	totalTime 	2.5
scalar MyScenario.node[35].veinsmobility 	stopTime 	10900
scalar MyScenario.node[35].veinsmobility 	minSpeed 	37.496972417569
scalar MyScenario.node[35].veinsmobility 	maxSpeed 	37.625238102727
scalar MyScenario.node[35].veinsmobility 	totalDistance 	93.784013356872
scalar MyScenario.node[35].veinsmobility 	totalCO2Emission 	18.907453795371
scalar MyScenario.node[31].appl 	generatedWSMs 	0
scalar MyScenario.node[31].appl 	receivedWSMs 	0
scalar MyScenario.node[31].appl 	generatedBSMs 	18
scalar MyScenario.node[31].appl 	receivedBSMs 	90
scalar MyScenario.node[31].appl 	generatedWSAs 	0
scalar MyScenario.node[31].appl 	receivedWSAs 	0
scalar MyScenario.node[31].nic.phy80211p 	busyTime 	0.00051147540983601
scalar MyScenario.node[31].nic.mac1609_4 	ReceivedUnicastPackets 	0
scalar MyScenario.node[31].nic.mac1609_4 	ReceivedBroadcasts 	90
scalar MyScenario.node[31].nic.mac1609_4 	SentPackets 	18
scalar MyScenario.node[31].nic.mac1609_4 	SNIRLostPackets 	0
scalar MyScenario.node[31].nic.mac1609_4 	RXTXLostPackets 	0
scalar MyScenario.node[31].nic.mac1609_4 	TotalLostPackets 	0
scalar MyScenario.node[31].nic.mac1609_4 	DroppedPacketsInMac 	0
scalar MyScenario.node[31].nic.mac1609_4 	TooLittleTime 	0
scalar MyScenario.node[31].nic.mac1609_4 	TimesIntoBackoff 	18
scalar MyScenario.node[31].nic.mac1609_4 	SlotsBackoff 	29
scalar MyScenario.node[31].nic.mac1609_4 	NumInternalContention 	0
scalar MyScenario.node[31].nic.mac1609_4 	totalBusyTime 	0.01125
scalar MyScenario.node[31].veinsmobility 	startTime 	10881.7
scalar MyScenario.node[31].veinsmobility 	totalTime 	18.3
scalar MyScenario.node[31].veinsmobility 	stopTime 	10900
scalar MyScenario.node[31].veinsmobility 	minSpeed 	31.694678040521
scalar MyScenario.node[31].veinsmobility 	maxSpeed 	31.824046339741
scalar MyScenario.node[31].veinsmobility 	totalDistance 	580.43722284089
scalar MyScenario.node[31].veinsmobility 	totalCO2Emission 	102.46935417423
scalar MyScenario.node[30].appl 	generatedWSMs 	0
scalar MyScenario.node[30].appl 	receivedWSMs 	0
scalar MyScenario.node[30].appl 	generatedBSMs 	19
scalar MyScenario.node[30].appl 	receivedBSMs 	84
scalar MyScenario.node[30].appl 	generatedWSAs 	0
scalar MyScenario.node[30].appl 	receivedWSAs 	0
scalar MyScenario.node[30].nic.phy80211p 	busyTime 	0.00045738219895288
scalar MyScenario.node[30].nic.mac1609_4 	ReceivedUnicastPackets 	0
scalar MyScenario.node[30].nic.mac1609_4 	ReceivedBroadcasts 	84
scalar MyScenario.node[30].nic.mac1609_4 	SentPackets 	19
scalar MyScenario.node[30].nic.mac1609_4 	SNIRLostPackets 	0
scalar MyScenario.node[30].nic.mac1609_4 	RXTXLostPackets 	0
scalar MyScenario.node[30].nic.mac1609_4 	TotalLostPackets 	0
scalar MyScenario.node[30].nic.mac1609_4 	DroppedPacketsInMac 	0
scalar MyScenario.node[30].nic.mac1609_4 	TooLittleTime 	0
scalar MyScenario.node[30].nic.mac1609_4 	TimesIntoBackoff 	19
scalar MyScenario.node[30].nic.mac1609_4 	SlotsBackoff 	24
scalar MyScenario.node[30].nic.mac1609_4 	NumInternalContention 	0
scalar MyScenario.node[30].nic.mac1609_4 	totalBusyTime 	0.010731
scalar MyScenario.node[30].veinsmobility 	startTime 	10880.9
scalar MyScenario.node[30].veinsmobility 	totalTime 	19.1
scalar MyScenario.node[30].veinsmobility 	stopTime 	10900
scalar MyScenario.node[30].veinsmobility 	minSpeed 	41.363517175624
scalar MyScenario.node[30].veinsmobility 	maxSpeed 	41.492134254756
scalar MyScenario.node[30].veinsmobility 	totalDistance 	791.34065954029
scalar MyScenario.node[30].veinsmobility 	totalCO2Emission 	183.2473864137
scalar MyScenario.node[33].appl 	generatedWSMs 	0
scalar MyScenario.node[33].appl 	receivedWSMs 	0
scalar MyScenario.node[33].appl 	generatedBSMs 	18
scalar MyScenario.node[33].appl 	receivedBSMs 	91
scalar MyScenario.node[33].appl 	generatedWSAs 	0
scalar MyScenario.node[33].appl 	receivedWSAs 	0
scalar MyScenario.node[33].nic.phy80211p 	busyTime 	0.00052
scalar MyScenario.node[33].nic.mac1609_4 	ReceivedUnicastPackets 	0
scalar MyScenario.node[33].nic.mac1609_4 	ReceivedBroadcasts 	91
scalar MyScenario.node[33].nic.mac1609_4 	SentPackets 	18
scalar MyScenario.node[33].nic.mac1609_4 	SNIRLostPackets 	0
scalar MyScenario.node[33].nic.mac1609_4 	RXTXLostPackets 	0
scalar MyScenario.node[33].nic.mac1609_4 	TotalLostPackets 	0
scalar MyScenario.node[33].nic.mac1609_4 	DroppedPacketsInMac 	0
scalar MyScenario.node[33].nic.mac1609_4 	TooLittleTime 	0
scalar MyScenario.node[33].nic.mac1609_4 	TimesIntoBackoff 	18
scalar MyScenario.node[33].nic.mac1609_4 	SlotsBackoff 	29
scalar MyScenario.node[33].nic.mac1609_4 	NumInternalContention 	0
scalar MyScenario.node[33].nic.mac1609_4 	totalBusyTime 	0.011354
scalar MyScenario.node[33].veinsmobility 	startTime 	10881.8
scalar MyScenario.node[33].veinsmobility 	totalTime 	18.2
scalar MyScenario.node[33].veinsmobility 	stopTime 	10900
scalar MyScenario.node[33].veinsmobility 	minSpeed 	39.016500991964
scalar MyScenario.node[33].veinsmobility 	maxSpeed 	39.156302382149
scalar MyScenario.node[33].veinsmobility 	totalDistance 	711.38621224807
scalar MyScenario.node[33].veinsmobility 	totalCO2Emission 	154.81028173493
scalar MyScenario.node[34].appl 	generatedWSMs 	0
scalar MyScenario.node[34].appl 	receivedWSMs 	0
scalar MyScenario.node[34].appl 	generatedBSMs 	16
scalar MyScenario.node[34].appl 	receivedBSMs 	85
scalar MyScenario.node[34].appl 	generatedWSAs 	0
scalar MyScenario.node[34].appl 	receivedWSAs 	0
scalar MyScenario.node[34].nic.phy80211p 	busyTime 	0.00053253012048193
scalar MyScenario.node[34].nic.mac1609_4 	ReceivedUnicastPackets 	0
scalar MyScenario.node[34].nic.mac1609_4 	ReceivedBroadcasts 	85
scalar MyScenario.node[34].nic.mac1609_4 	SentPackets 	16
scalar MyScenario.node[34].nic.mac1609_4 	SNIRLostPackets 	0
scalar MyScenario.node[34].nic.mac1609_4 	RXTXLostPackets 	0
scalar MyScenario.node[34].nic.mac1609_4 	TotalLostPackets 	0
scalar MyScenario.node[34].nic.mac1609_4 	DroppedPacketsInMac 	0
scalar MyScenario.node[34].nic.mac1609_4 	TooLittleTime 	0
scalar MyScenario.node[34].nic.mac1609_4 	TimesIntoBackoff 	16
scalar MyScenario.node[34].nic.mac1609_4 	SlotsBackoff 	23
scalar MyScenario.node[34].nic.mac1609_4 	NumInternalContention 	0
scalar MyScenario.node[34].nic.mac1609_4 	totalBusyTime 	0.01052
scalar MyScenario.node[34].veinsmobility 	startTime 	10883.4
scalar MyScenario.node[34].veinsmobility 	totalTime 	16.6
scalar MyScenario.node[34].veinsmobility 	stopTime 	10900
scalar MyScenario.node[34].veinsmobility 	minSpeed 	31.944932902001
scalar MyScenario.node[34].veinsmobility 	maxSpeed 	33.588681182118
scalar MyScenario.node[34].veinsmobility 	totalDistance 	539.30361402601
scalar MyScenario.node[34].veinsmobility 	totalCO2Emission 	92.514895114775
scalar MyScenario.node[28].appl 	generatedWSMs 	0
scalar MyScenario.node[28].appl 	receivedWSMs 	0
scalar MyScenario.node[28].appl 	generatedBSMs 	28
scalar MyScenario.node[28].appl 	receivedBSMs 	111
scalar MyScenario.node[28].appl 	generatedWSAs 	0
scalar MyScenario.node[28].appl 	receivedWSAs 	0
scalar MyScenario.node[28].nic.phy80211p 	busyTime 	0.00041525179856112
scalar MyScenario.node[28].nic.mac1609_4 	ReceivedUnicastPackets 	0
scalar MyScenario.node[28].nic.mac1609_4 	ReceivedBroadcasts 	111
scalar MyScenario.node[28].nic.mac1609_4 	SentPackets 	28
scalar MyScenario.node[28].nic.mac1609_4 	SNIRLostPackets 	0
scalar MyScenario.node[28].nic.mac1609_4 	RXTXLostPackets 	0
scalar MyScenario.node[28].nic.mac1609_4 	TotalLostPackets 	0
scalar MyScenario.node[28].nic.mac1609_4 	DroppedPacketsInMac 	0
scalar MyScenario.node[28].nic.mac1609_4 	TooLittleTime 	0
scalar MyScenario.node[28].nic.mac1609_4 	TimesIntoBackoff 	28
scalar MyScenario.node[28].nic.mac1609_4 	SlotsBackoff 	49
scalar MyScenario.node[28].nic.mac1609_4 	NumInternalContention 	0
scalar MyScenario.node[28].nic.mac1609_4 	totalBusyTime 	0.014484
scalar MyScenario.node[28].veinsmobility 	startTime 	10872.2
scalar MyScenario.node[28].veinsmobility 	totalTime 	27.8
scalar MyScenario.node[28].veinsmobility 	stopTime 	10900
scalar MyScenario.node[28].veinsmobility 	minSpeed 	31.969726237505
scalar MyScenario.node[28].veinsmobility 	maxSpeed 	32.108447491792
scalar MyScenario.node[28].veinsmobility 	totalDistance 	891.60542479963
scalar MyScenario.node[28].veinsmobility 	totalCO2Emission 	162.45020933745
scalar MyScenario.node[27].appl 	generatedWSMs 	0
scalar MyScenario.node[27].appl 	receivedWSMs 	0
scalar MyScenario.node[27].appl 	generatedBSMs 	29
scalar MyScenario.node[27].appl 	receivedBSMs 	116
scalar MyScenario.node[27].appl 	generatedWSAs 	0
scalar MyScenario.node[27].appl 	receivedWSAs 	0
scalar MyScenario.node[27].nic.phy80211p 	busyTime 	0.00042034843205575
scalar MyScenario.node[27].nic.mac1609_4 	ReceivedUnicastPackets 	0
scalar MyScenario.node[27].nic.mac1609_4 	ReceivedBroadcasts 	116
scalar MyScenario.node[27].nic.mac1609_4 	SentPackets 	29
scalar MyScenario.node[27].nic.mac1609_4 	SNIRLostPackets 	0
scalar MyScenario.node[27].nic.mac1609_4 	RXTXLostPackets 	0
scalar MyScenario.node[27].nic.mac1609_4 	TotalLostPackets 	0
scalar MyScenario.node[27].nic.mac1609_4 	DroppedPacketsInMac 	0
scalar MyScenario.node[27].nic.mac1609_4 	TooLittleTime 	0
scalar MyScenario.node[27].nic.mac1609_4 	TimesIntoBackoff 	29
scalar MyScenario.node[27].nic.mac1609_4 	SlotsBackoff 	47
scalar MyScenario.node[27].nic.mac1609_4 	NumInternalContention 	0
scalar MyScenario.node[27].nic.mac1609_4 	totalBusyTime 	0.015109
scalar MyScenario.node[27].veinsmobility 	startTime 	10871.3
scalar MyScenario.node[27].veinsmobility 	totalTime 	28.7
scalar MyScenario.node[27].veinsmobility 	stopTime 	10900
scalar MyScenario.node[27].veinsmobility 	minSpeed 	27.426640294059
scalar MyScenario.node[27].veinsmobility 	maxSpeed 	27.566234559952
scalar MyScenario.node[27].veinsmobility 	totalDistance 	789.14731874507
scalar MyScenario.node[27].veinsmobility 	totalCO2Emission 	133.6291908421
scalar MyScenario.node[12].appl 	generatedWSMs 	0
scalar MyScenario.node[12].appl 	receivedWSMs 	0
scalar MyScenario.node[12].appl 	generatedBSMs 	78
scalar MyScenario.node[12].appl 	receivedBSMs 	4
scalar MyScenario.node[12].appl 	generatedWSAs 	0
scalar MyScenario.node[12].appl 	receivedWSAs 	0
scalar MyScenario.node[12].nic.phy80211p 	busyTime 	5.2724968314322e-06
scalar MyScenario.node[12].nic.mac1609_4 	ReceivedUnicastPackets 	0
scalar MyScenario.node[12].nic.mac1609_4 	ReceivedBroadcasts 	4
scalar MyScenario.node[12].nic.mac1609_4 	SentPackets 	78
scalar MyScenario.node[12].nic.mac1609_4 	SNIRLostPackets 	0
scalar MyScenario.node[12].nic.mac1609_4 	RXTXLostPackets 	0
scalar MyScenario.node[12].nic.mac1609_4 	TotalLostPackets 	0
scalar MyScenario.node[12].nic.mac1609_4 	DroppedPacketsInMac 	0
scalar MyScenario.node[12].nic.mac1609_4 	TooLittleTime 	0
scalar MyScenario.node[12].nic.mac1609_4 	TimesIntoBackoff 	78
scalar MyScenario.node[12].nic.mac1609_4 	SlotsBackoff 	139
scalar MyScenario.node[12].nic.mac1609_4 	NumInternalContention 	0
scalar MyScenario.node[12].nic.mac1609_4 	totalBusyTime 	0.008606
scalar MyScenario.node[12].veinsmobility 	startTime 	10821.1
scalar MyScenario.node[12].veinsmobility 	totalTime 	78.9
scalar MyScenario.node[12].veinsmobility 	stopTime 	10900
scalar MyScenario.node[12].veinsmobility 	minSpeed 	0
scalar MyScenario.node[12].veinsmobility 	maxSpeed 	14.51509672059
scalar MyScenario.node[12].veinsmobility 	totalDistance 	398.47719376787
scalar MyScenario.node[12].veinsmobility 	totalCO2Emission 	179.21231578183
scalar MyScenario.node[32].appl 	generatedWSMs 	0
scalar MyScenario.node[32].appl 	receivedWSMs 	0
scalar MyScenario.node[32].appl 	generatedBSMs 	18
scalar MyScenario.node[32].appl 	receivedBSMs 	94
scalar MyScenario.node[32].appl 	generatedWSAs 	0
scalar MyScenario.node[32].appl 	receivedWSAs 	0
scalar MyScenario.node[32].nic.phy80211p 	busyTime 	0.00053420765027317
scalar MyScenario.node[32].nic.mac1609_4 	ReceivedUnicastPackets 	0
scalar MyScenario.node[32].nic.mac1609_4 	ReceivedBroadcasts 	94
scalar MyScenario.node[32].nic.mac1609_4 	SentPackets 	18
scalar MyScenario.node[32].nic.mac1609_4 	SNIRLostPackets 	0
scalar MyScenario.node[32].nic.mac1609_4 	RXTXLostPackets 	0
scalar MyScenario.node[32].nic.mac1609_4 	TotalLostPackets 	0
scalar MyScenario.node[32].nic.mac1609_4 	DroppedPacketsInMac 	0
scalar MyScenario.node[32].nic.mac1609_4 	TooLittleTime 	0
scalar MyScenario.node[32].nic.mac1609_4 	TimesIntoBackoff 	18
scalar MyScenario.node[32].nic.mac1609_4 	SlotsBackoff 	22
scalar MyScenario.node[32].nic.mac1609_4 	NumInternalContention 	0
scalar MyScenario.node[32].nic.mac1609_4 	totalBusyTime 	0.011666
scalar MyScenario.node[32].veinsmobility 	startTime 	10881.7
scalar MyScenario.node[32].veinsmobility 	totalTime 	18.3
scalar MyScenario.node[32].veinsmobility 	stopTime 	10900
scalar MyScenario.node[32].veinsmobility 	minSpeed 	27.91895628434
scalar MyScenario.node[32].veinsmobility 	maxSpeed 	32.658594860772
scalar MyScenario.node[32].veinsmobility 	totalDistance 	591.17534057489
scalar MyScenario.node[32].veinsmobility 	totalCO2Emission 	142.09947747514
scalar MyScenario.node[6].appl 	generatedWSMs 	0
scalar MyScenario.node[6].appl 	receivedWSMs 	0
scalar MyScenario.node[6].appl 	generatedBSMs 	100
scalar MyScenario.node[6].appl 	receivedBSMs 	24
scalar MyScenario.node[6].appl 	generatedWSAs 	0
scalar MyScenario.node[6].appl 	receivedWSAs 	0
scalar MyScenario.node[6].nic.phy80211p 	busyTime 	2.496e-05
scalar MyScenario.node[6].nic.mac1609_4 	ReceivedUnicastPackets 	0
scalar MyScenario.node[6].nic.mac1609_4 	ReceivedBroadcasts 	24
scalar MyScenario.node[6].nic.mac1609_4 	SentPackets 	100
scalar MyScenario.node[6].nic.mac1609_4 	SNIRLostPackets 	0
scalar MyScenario.node[6].nic.mac1609_4 	RXTXLostPackets 	0
scalar MyScenario.node[6].nic.mac1609_4 	TotalLostPackets 	0
scalar MyScenario.node[6].nic.mac1609_4 	DroppedPacketsInMac 	0
scalar MyScenario.node[6].nic.mac1609_4 	TooLittleTime 	0
scalar MyScenario.node[6].nic.mac1609_4 	TimesIntoBackoff 	100
scalar MyScenario.node[6].nic.mac1609_4 	SlotsBackoff 	153
scalar MyScenario.node[6].nic.mac1609_4 	NumInternalContention 	0
scalar MyScenario.node[6].nic.mac1609_4 	totalBusyTime 	0.012996
scalar MyScenario.node[6].veinsmobility 	startTime 	10800
scalar MyScenario.node[6].veinsmobility 	totalTime 	100
scalar MyScenario.node[6].veinsmobility 	stopTime 	10900
scalar MyScenario.node[6].veinsmobility 	minSpeed 	0
scalar MyScenario.node[6].veinsmobility 	maxSpeed 	14.920243865145
scalar MyScenario.node[6].veinsmobility 	totalDistance 	705.43776947116
scalar MyScenario.node[6].veinsmobility 	totalCO2Emission 	220.71395249091
